* NGSPICE file created from user_analog_project_wrapper.ext - technology: sky130A

.subckt switch-small a_130480_557030# a_130580_557030# SIgnal
X0 a_130220_557340# SIgnal GND GND sky130_fd_pr__nfet_01v8 ad=1.575e+11p pd=1.6e+06u as=5.075e+11p ps=4.3e+06u w=450000u l=150000u
X1 a_130580_557030# a_130220_557340# a_130480_557030# VDD sky130_fd_pr__pfet_01v8 ad=7e+11p pd=5.4e+06u as=3.5e+11p ps=2.7e+06u w=1e+06u l=150000u
X2 a_130220_557340# SIgnal VDD VDD sky130_fd_pr__pfet_01v8 ad=1.575e+11p pd=1.6e+06u as=1.575e+11p ps=1.6e+06u w=450000u l=150000u
X3 a_130580_557030# SIgnal a_130480_557030# GND sky130_fd_pr__nfet_01v8 ad=7e+11p pd=5.4e+06u as=3.5e+11p ps=2.7e+06u w=1e+06u l=150000u
X4 GND SIgnal a_130580_557030# VDD sky130_fd_pr__pfet_01v8 ad=1.45e+12p pd=8.9e+06u as=0p ps=0u w=1e+06u l=150000u
X5 GND a_130220_557340# a_130580_557030# GND sky130_fd_pr__nfet_01v8 ad=0p pd=0u as=0p ps=0u w=1e+06u l=150000u
.ends

.subckt sky130_fd_sc_hd__decap_6 VGND VPWR VNB VPB
X0 VPWR VGND VPWR VPB sky130_fd_pr__pfet_01v8_hvt ad=4.524e+11p pd=4.52e+06u as=0p ps=0u w=870000u l=1.97e+06u
X1 VGND VPWR VGND VNB sky130_fd_pr__nfet_01v8 ad=2.86e+11p pd=3.24e+06u as=0p ps=0u w=550000u l=1.97e+06u
.ends

.subckt sky130_fd_sc_hd__dfxtp_1 CLK D VGND VPWR Q VNB VPB
X0 Q a_1059_315# VGND VNB sky130_fd_pr__nfet_01v8 ad=1.69e+11p pd=1.82e+06u as=7.492e+11p ps=8.11e+06u w=650000u l=150000u
X1 a_891_413# a_193_47# a_634_159# VNB sky130_fd_pr__nfet_01v8 ad=1.368e+11p pd=1.48e+06u as=1.978e+11p ps=1.99e+06u w=360000u l=150000u
X2 a_561_413# a_27_47# a_466_413# VPB sky130_fd_pr__pfet_01v8_hvt ad=1.533e+11p pd=1.57e+06u as=1.365e+11p ps=1.49e+06u w=420000u l=150000u
X3 VPWR CLK a_27_47# VPB sky130_fd_pr__pfet_01v8_hvt ad=1.02105e+12p pd=9.61e+06u as=1.664e+11p ps=1.8e+06u w=640000u l=150000u
X4 Q a_1059_315# VPWR VPB sky130_fd_pr__pfet_01v8_hvt ad=2.6e+11p pd=2.52e+06u as=0p ps=0u w=1e+06u l=150000u
X5 a_381_47# D VPWR VPB sky130_fd_pr__pfet_01v8_hvt ad=1.155e+11p pd=1.39e+06u as=0p ps=0u w=420000u l=150000u
X6 VGND a_634_159# a_592_47# VNB sky130_fd_pr__nfet_01v8 ad=0p pd=0u as=1.392e+11p ps=1.53e+06u w=420000u l=150000u
X7 VPWR a_891_413# a_1059_315# VPB sky130_fd_pr__pfet_01v8_hvt ad=0p pd=0u as=2.7e+11p ps=2.54e+06u w=1e+06u l=150000u
X8 a_466_413# a_193_47# a_381_47# VPB sky130_fd_pr__pfet_01v8_hvt ad=0p pd=0u as=0p ps=0u w=420000u l=150000u
X9 VPWR a_634_159# a_561_413# VPB sky130_fd_pr__pfet_01v8_hvt ad=0p pd=0u as=0p ps=0u w=420000u l=150000u
X10 a_634_159# a_466_413# VGND VNB sky130_fd_pr__nfet_01v8 ad=0p pd=0u as=0p ps=0u w=640000u l=150000u
X11 a_634_159# a_466_413# VPWR VPB sky130_fd_pr__pfet_01v8_hvt ad=2.19e+11p pd=2.15e+06u as=0p ps=0u w=750000u l=150000u
X12 a_975_413# a_193_47# a_891_413# VPB sky130_fd_pr__pfet_01v8_hvt ad=1.764e+11p pd=1.68e+06u as=1.134e+11p ps=1.38e+06u w=420000u l=150000u
X13 VGND a_1059_315# a_1017_47# VNB sky130_fd_pr__nfet_01v8 ad=0p pd=0u as=1.32e+11p ps=1.49e+06u w=420000u l=150000u
X14 a_193_47# a_27_47# VGND VNB sky130_fd_pr__nfet_01v8 ad=1.092e+11p pd=1.36e+06u as=0p ps=0u w=420000u l=150000u
X15 a_891_413# a_27_47# a_634_159# VPB sky130_fd_pr__pfet_01v8_hvt ad=0p pd=0u as=0p ps=0u w=420000u l=150000u
X16 a_592_47# a_193_47# a_466_413# VNB sky130_fd_pr__nfet_01v8 ad=0p pd=0u as=1.242e+11p ps=1.41e+06u w=360000u l=150000u
X17 a_1017_47# a_27_47# a_891_413# VNB sky130_fd_pr__nfet_01v8 ad=0p pd=0u as=0p ps=0u w=360000u l=150000u
X18 VPWR a_1059_315# a_975_413# VPB sky130_fd_pr__pfet_01v8_hvt ad=0p pd=0u as=0p ps=0u w=420000u l=150000u
X19 a_466_413# a_27_47# a_381_47# VNB sky130_fd_pr__nfet_01v8 ad=0p pd=0u as=1.626e+11p ps=1.66e+06u w=360000u l=150000u
X20 a_193_47# a_27_47# VPWR VPB sky130_fd_pr__pfet_01v8_hvt ad=1.664e+11p pd=1.8e+06u as=0p ps=0u w=640000u l=150000u
X21 VGND a_891_413# a_1059_315# VNB sky130_fd_pr__nfet_01v8 ad=0p pd=0u as=1.69e+11p ps=1.82e+06u w=650000u l=150000u
X22 a_381_47# D VGND VNB sky130_fd_pr__nfet_01v8 ad=0p pd=0u as=0p ps=0u w=420000u l=150000u
X23 VGND CLK a_27_47# VNB sky130_fd_pr__nfet_01v8 ad=0p pd=0u as=1.092e+11p ps=1.36e+06u w=420000u l=150000u
.ends

.subckt sky130_fd_sc_hd__decap_12 VGND VPWR VNB VPB
X0 VPWR VGND VPWR VPB sky130_fd_pr__pfet_01v8_hvt ad=4.524e+11p pd=4.52e+06u as=0p ps=0u w=870000u l=4.73e+06u
X1 VGND VPWR VGND VNB sky130_fd_pr__nfet_01v8 ad=2.86e+11p pd=3.24e+06u as=0p ps=0u w=550000u l=4.73e+06u
.ends

.subckt sky130_fd_sc_hd__decap_4 VGND VPWR VNB VPB
X0 VPWR VGND VPWR VPB sky130_fd_pr__pfet_01v8_hvt ad=4.524e+11p pd=4.52e+06u as=0p ps=0u w=870000u l=1.05e+06u
X1 VGND VPWR VGND VNB sky130_fd_pr__nfet_01v8 ad=2.86e+11p pd=3.24e+06u as=0p ps=0u w=550000u l=1.05e+06u
.ends

.subckt sky130_fd_sc_hd__decap_3 VGND VPWR VNB VPB
X0 VPWR VGND VPWR VPB sky130_fd_pr__pfet_01v8_hvt ad=4.524e+11p pd=4.52e+06u as=0p ps=0u w=870000u l=590000u
X1 VGND VPWR VGND VNB sky130_fd_pr__nfet_01v8 ad=2.86e+11p pd=3.24e+06u as=0p ps=0u w=550000u l=590000u
.ends

.subckt sky130_fd_sc_hd__decap_8 VGND VPWR VNB VPB
X0 VPWR VGND VPWR VPB sky130_fd_pr__pfet_01v8_hvt ad=4.524e+11p pd=4.52e+06u as=0p ps=0u w=870000u l=2.89e+06u
X1 VGND VPWR VGND VNB sky130_fd_pr__nfet_01v8 ad=2.86e+11p pd=3.24e+06u as=0p ps=0u w=550000u l=2.89e+06u
.ends

.subckt sky130_fd_sc_hd__clkbuf_1 A VGND VPWR X VNB VPB
X0 VPWR a_75_212# X VPB sky130_fd_pr__pfet_01v8_hvt ad=2.291e+11p pd=2.16e+06u as=2.054e+11p ps=2.1e+06u w=790000u l=150000u
X1 a_75_212# A VGND VNB sky130_fd_pr__nfet_01v8 ad=1.352e+11p pd=1.56e+06u as=1.508e+11p ps=1.62e+06u w=520000u l=150000u
X2 a_75_212# A VPWR VPB sky130_fd_pr__pfet_01v8_hvt ad=2.054e+11p pd=2.1e+06u as=0p ps=0u w=790000u l=150000u
X3 VGND a_75_212# X VNB sky130_fd_pr__nfet_01v8 ad=0p pd=0u as=1.352e+11p ps=1.56e+06u w=520000u l=150000u
.ends

.subckt sky130_fd_sc_hd__clkbuf_16 A VGND VPWR X VNB VPB
X0 X a_110_47# VPWR VPB sky130_fd_pr__pfet_01v8_hvt ad=2.24e+12p pd=2.048e+07u as=3.045e+12p ps=2.809e+07u w=1e+06u l=150000u
X1 X a_110_47# VPWR VPB sky130_fd_pr__pfet_01v8_hvt ad=0p pd=0u as=0p ps=0u w=1e+06u l=150000u
X2 VPWR a_110_47# X VPB sky130_fd_pr__pfet_01v8_hvt ad=0p pd=0u as=0p ps=0u w=1e+06u l=150000u
X3 VPWR a_110_47# X VPB sky130_fd_pr__pfet_01v8_hvt ad=0p pd=0u as=0p ps=0u w=1e+06u l=150000u
X4 a_110_47# A VPWR VPB sky130_fd_pr__pfet_01v8_hvt ad=5.6e+11p pd=5.12e+06u as=0p ps=0u w=1e+06u l=150000u
X5 a_110_47# A VGND VNB sky130_fd_pr__nfet_01v8 ad=2.352e+11p pd=2.8e+06u as=1.2789e+12p ps=1.533e+07u w=420000u l=150000u
X6 VGND a_110_47# X VNB sky130_fd_pr__nfet_01v8 ad=0p pd=0u as=9.408e+11p ps=1.12e+07u w=420000u l=150000u
X7 X a_110_47# VGND VNB sky130_fd_pr__nfet_01v8 ad=0p pd=0u as=0p ps=0u w=420000u l=150000u
X8 VGND a_110_47# X VNB sky130_fd_pr__nfet_01v8 ad=0p pd=0u as=0p ps=0u w=420000u l=150000u
X9 a_110_47# A VPWR VPB sky130_fd_pr__pfet_01v8_hvt ad=0p pd=0u as=0p ps=0u w=1e+06u l=150000u
X10 VGND a_110_47# X VNB sky130_fd_pr__nfet_01v8 ad=0p pd=0u as=0p ps=0u w=420000u l=150000u
X11 X a_110_47# VPWR VPB sky130_fd_pr__pfet_01v8_hvt ad=0p pd=0u as=0p ps=0u w=1e+06u l=150000u
X12 VGND A a_110_47# VNB sky130_fd_pr__nfet_01v8 ad=0p pd=0u as=0p ps=0u w=420000u l=150000u
X13 VPWR a_110_47# X VPB sky130_fd_pr__pfet_01v8_hvt ad=0p pd=0u as=0p ps=0u w=1e+06u l=150000u
X14 VGND A a_110_47# VNB sky130_fd_pr__nfet_01v8 ad=0p pd=0u as=0p ps=0u w=420000u l=150000u
X15 VGND a_110_47# X VNB sky130_fd_pr__nfet_01v8 ad=0p pd=0u as=0p ps=0u w=420000u l=150000u
X16 VPWR a_110_47# X VPB sky130_fd_pr__pfet_01v8_hvt ad=0p pd=0u as=0p ps=0u w=1e+06u l=150000u
X17 X a_110_47# VPWR VPB sky130_fd_pr__pfet_01v8_hvt ad=0p pd=0u as=0p ps=0u w=1e+06u l=150000u
X18 a_110_47# A VGND VNB sky130_fd_pr__nfet_01v8 ad=0p pd=0u as=0p ps=0u w=420000u l=150000u
X19 VGND a_110_47# X VNB sky130_fd_pr__nfet_01v8 ad=0p pd=0u as=0p ps=0u w=420000u l=150000u
X20 VPWR a_110_47# X VPB sky130_fd_pr__pfet_01v8_hvt ad=0p pd=0u as=0p ps=0u w=1e+06u l=150000u
X21 VPWR a_110_47# X VPB sky130_fd_pr__pfet_01v8_hvt ad=0p pd=0u as=0p ps=0u w=1e+06u l=150000u
X22 VGND a_110_47# X VNB sky130_fd_pr__nfet_01v8 ad=0p pd=0u as=0p ps=0u w=420000u l=150000u
X23 VPWR A a_110_47# VPB sky130_fd_pr__pfet_01v8_hvt ad=0p pd=0u as=0p ps=0u w=1e+06u l=150000u
X24 X a_110_47# VPWR VPB sky130_fd_pr__pfet_01v8_hvt ad=0p pd=0u as=0p ps=0u w=1e+06u l=150000u
X25 VGND a_110_47# X VNB sky130_fd_pr__nfet_01v8 ad=0p pd=0u as=0p ps=0u w=420000u l=150000u
X26 VGND a_110_47# X VNB sky130_fd_pr__nfet_01v8 ad=0p pd=0u as=0p ps=0u w=420000u l=150000u
X27 X a_110_47# VGND VNB sky130_fd_pr__nfet_01v8 ad=0p pd=0u as=0p ps=0u w=420000u l=150000u
X28 X a_110_47# VPWR VPB sky130_fd_pr__pfet_01v8_hvt ad=0p pd=0u as=0p ps=0u w=1e+06u l=150000u
X29 X a_110_47# VPWR VPB sky130_fd_pr__pfet_01v8_hvt ad=0p pd=0u as=0p ps=0u w=1e+06u l=150000u
X30 X a_110_47# VGND VNB sky130_fd_pr__nfet_01v8 ad=0p pd=0u as=0p ps=0u w=420000u l=150000u
X31 VPWR a_110_47# X VPB sky130_fd_pr__pfet_01v8_hvt ad=0p pd=0u as=0p ps=0u w=1e+06u l=150000u
X32 X a_110_47# VPWR VPB sky130_fd_pr__pfet_01v8_hvt ad=0p pd=0u as=0p ps=0u w=1e+06u l=150000u
X33 X a_110_47# VGND VNB sky130_fd_pr__nfet_01v8 ad=0p pd=0u as=0p ps=0u w=420000u l=150000u
X34 X a_110_47# VGND VNB sky130_fd_pr__nfet_01v8 ad=0p pd=0u as=0p ps=0u w=420000u l=150000u
X35 X a_110_47# VGND VNB sky130_fd_pr__nfet_01v8 ad=0p pd=0u as=0p ps=0u w=420000u l=150000u
X36 X a_110_47# VGND VNB sky130_fd_pr__nfet_01v8 ad=0p pd=0u as=0p ps=0u w=420000u l=150000u
X37 X a_110_47# VGND VNB sky130_fd_pr__nfet_01v8 ad=0p pd=0u as=0p ps=0u w=420000u l=150000u
X38 VPWR A a_110_47# VPB sky130_fd_pr__pfet_01v8_hvt ad=0p pd=0u as=0p ps=0u w=1e+06u l=150000u
X39 VPWR a_110_47# X VPB sky130_fd_pr__pfet_01v8_hvt ad=0p pd=0u as=0p ps=0u w=1e+06u l=150000u
.ends

.subckt sky130_fd_sc_hd__dfxtp_2 CLK D VGND VPWR Q VNB VPB
X0 Q a_1059_315# VGND VNB sky130_fd_pr__nfet_01v8 ad=1.755e+11p pd=1.84e+06u as=9.182e+11p ps=9.93e+06u w=650000u l=150000u
X1 a_891_413# a_193_47# a_634_159# VNB sky130_fd_pr__nfet_01v8 ad=1.368e+11p pd=1.48e+06u as=1.978e+11p ps=1.99e+06u w=360000u l=150000u
X2 VPWR a_1059_315# Q VPB sky130_fd_pr__pfet_01v8_hvt ad=1.28105e+12p pd=1.213e+07u as=2.7e+11p ps=2.54e+06u w=1e+06u l=150000u
X3 a_561_413# a_27_47# a_466_413# VPB sky130_fd_pr__pfet_01v8_hvt ad=1.533e+11p pd=1.57e+06u as=1.365e+11p ps=1.49e+06u w=420000u l=150000u
X4 VPWR CLK a_27_47# VPB sky130_fd_pr__pfet_01v8_hvt ad=0p pd=0u as=1.664e+11p ps=1.8e+06u w=640000u l=150000u
X5 Q a_1059_315# VPWR VPB sky130_fd_pr__pfet_01v8_hvt ad=0p pd=0u as=0p ps=0u w=1e+06u l=150000u
X6 a_381_47# D VPWR VPB sky130_fd_pr__pfet_01v8_hvt ad=1.155e+11p pd=1.39e+06u as=0p ps=0u w=420000u l=150000u
X7 VGND a_634_159# a_592_47# VNB sky130_fd_pr__nfet_01v8 ad=0p pd=0u as=1.392e+11p ps=1.53e+06u w=420000u l=150000u
X8 VGND a_1059_315# Q VNB sky130_fd_pr__nfet_01v8 ad=0p pd=0u as=0p ps=0u w=650000u l=150000u
X9 VPWR a_891_413# a_1059_315# VPB sky130_fd_pr__pfet_01v8_hvt ad=0p pd=0u as=2.7e+11p ps=2.54e+06u w=1e+06u l=150000u
X10 a_466_413# a_193_47# a_381_47# VPB sky130_fd_pr__pfet_01v8_hvt ad=0p pd=0u as=0p ps=0u w=420000u l=150000u
X11 VPWR a_634_159# a_561_413# VPB sky130_fd_pr__pfet_01v8_hvt ad=0p pd=0u as=0p ps=0u w=420000u l=150000u
X12 a_634_159# a_466_413# VGND VNB sky130_fd_pr__nfet_01v8 ad=0p pd=0u as=0p ps=0u w=640000u l=150000u
X13 a_634_159# a_466_413# VPWR VPB sky130_fd_pr__pfet_01v8_hvt ad=2.19e+11p pd=2.15e+06u as=0p ps=0u w=750000u l=150000u
X14 a_975_413# a_193_47# a_891_413# VPB sky130_fd_pr__pfet_01v8_hvt ad=1.764e+11p pd=1.68e+06u as=1.134e+11p ps=1.38e+06u w=420000u l=150000u
X15 VGND a_1059_315# a_1017_47# VNB sky130_fd_pr__nfet_01v8 ad=0p pd=0u as=1.32e+11p ps=1.49e+06u w=420000u l=150000u
X16 a_193_47# a_27_47# VGND VNB sky130_fd_pr__nfet_01v8 ad=1.092e+11p pd=1.36e+06u as=0p ps=0u w=420000u l=150000u
X17 a_891_413# a_27_47# a_634_159# VPB sky130_fd_pr__pfet_01v8_hvt ad=0p pd=0u as=0p ps=0u w=420000u l=150000u
X18 a_592_47# a_193_47# a_466_413# VNB sky130_fd_pr__nfet_01v8 ad=0p pd=0u as=1.242e+11p ps=1.41e+06u w=360000u l=150000u
X19 a_1017_47# a_27_47# a_891_413# VNB sky130_fd_pr__nfet_01v8 ad=0p pd=0u as=0p ps=0u w=360000u l=150000u
X20 VPWR a_1059_315# a_975_413# VPB sky130_fd_pr__pfet_01v8_hvt ad=0p pd=0u as=0p ps=0u w=420000u l=150000u
X21 a_466_413# a_27_47# a_381_47# VNB sky130_fd_pr__nfet_01v8 ad=0p pd=0u as=1.626e+11p ps=1.66e+06u w=360000u l=150000u
X22 a_193_47# a_27_47# VPWR VPB sky130_fd_pr__pfet_01v8_hvt ad=1.664e+11p pd=1.8e+06u as=0p ps=0u w=640000u l=150000u
X23 VGND a_891_413# a_1059_315# VNB sky130_fd_pr__nfet_01v8 ad=0p pd=0u as=1.69e+11p ps=1.82e+06u w=650000u l=150000u
X24 a_381_47# D VGND VNB sky130_fd_pr__nfet_01v8 ad=0p pd=0u as=0p ps=0u w=420000u l=150000u
X25 VGND CLK a_27_47# VNB sky130_fd_pr__nfet_01v8 ad=0p pd=0u as=1.092e+11p ps=1.36e+06u w=420000u l=150000u
.ends

.subckt sky130_fd_sc_hd__diode_2 DIODE VGND VPB VPWR VNB
D0 VNB DIODE sky130_fd_pr__diode_pw2nd_05v5 pj=5.36e+06u area=4.347e+11p
.ends

.subckt sky130_fd_sc_hd__clkbuf_2 A VGND VPWR X VNB VPB
X0 VPWR A a_27_47# VPB sky130_fd_pr__pfet_01v8_hvt ad=5.85e+11p pd=5.17e+06u as=2.65e+11p ps=2.53e+06u w=1e+06u l=150000u
X1 VPWR a_27_47# X VPB sky130_fd_pr__pfet_01v8_hvt ad=0p pd=0u as=2.7e+11p ps=2.54e+06u w=1e+06u l=150000u
X2 VGND A a_27_47# VNB sky130_fd_pr__nfet_01v8 ad=2.457e+11p pd=2.85e+06u as=1.113e+11p ps=1.37e+06u w=420000u l=150000u
X3 X a_27_47# VPWR VPB sky130_fd_pr__pfet_01v8_hvt ad=0p pd=0u as=0p ps=0u w=1e+06u l=150000u
X4 X a_27_47# VGND VNB sky130_fd_pr__nfet_01v8 ad=1.134e+11p pd=1.38e+06u as=0p ps=0u w=420000u l=150000u
X5 VGND a_27_47# X VNB sky130_fd_pr__nfet_01v8 ad=0p pd=0u as=0p ps=0u w=420000u l=150000u
.ends

.subckt shift_reg clk din out_window[0] out_window[1] out_window[2] out_window[3]
+ VPWR VGND
XFILLER_67_553 VGND VPWR VGND VPWR sky130_fd_sc_hd__decap_6
X_0367_ _1088_/CLK _0367_/D VGND VPWR _0368_/D VGND VPWR sky130_fd_sc_hd__dfxtp_1
XFILLER_39_266 VGND VPWR VGND VPWR sky130_fd_sc_hd__decap_12
X_0298_ _0316_/CLK _0298_/D VGND VPWR _0299_/D VGND VPWR sky130_fd_sc_hd__dfxtp_1
XFILLER_54_247 VGND VPWR VGND VPWR sky130_fd_sc_hd__decap_4
XFILLER_23_612 VGND VPWR VGND VPWR sky130_fd_sc_hd__decap_4
XFILLER_82_589 VGND VPWR VGND VPWR sky130_fd_sc_hd__decap_12
XFILLER_104_433 VGND VPWR VGND VPWR sky130_fd_sc_hd__decap_3
XFILLER_104_477 VGND VPWR VGND VPWR sky130_fd_sc_hd__decap_12
XFILLER_92_309 VGND VPWR VGND VPWR sky130_fd_sc_hd__decap_12
XFILLER_93_47 VGND VPWR VGND VPWR sky130_fd_sc_hd__decap_8
XFILLER_45_225 VGND VPWR VGND VPWR sky130_fd_sc_hd__decap_3
XFILLER_73_556 VGND VPWR VGND VPWR sky130_fd_sc_hd__decap_4
XFILLER_33_409 VGND VPWR VGND VPWR sky130_fd_sc_hd__decap_12
XFILLER_14_601 VGND VPWR VGND VPWR sky130_fd_sc_hd__decap_4
XFILLER_42_73 VGND VPWR VGND VPWR sky130_fd_sc_hd__decap_8
X_1270_ _1302_/CLK _1270_/D VGND VPWR _1271_/D VGND VPWR sky130_fd_sc_hd__dfxtp_1
XFILLER_67_81 VGND VPWR VGND VPWR sky130_fd_sc_hd__decap_4
X_0221_ _0316_/CLK _0221_/D VGND VPWR _0222_/D VGND VPWR sky130_fd_sc_hd__dfxtp_1
XFILLER_49_553 VGND VPWR VGND VPWR sky130_fd_sc_hd__decap_6
X_0152_ _1162_/CLK _0152_/D VGND VPWR _0153_/D VGND VPWR sky130_fd_sc_hd__dfxtp_1
XFILLER_64_545 VGND VPWR VGND VPWR sky130_fd_sc_hd__decap_3
XFILLER_36_269 VGND VPWR VGND VPWR sky130_fd_sc_hd__decap_12
XFILLER_91_364 VGND VPWR VGND VPWR sky130_fd_sc_hd__decap_6
XFILLER_91_386 VGND VPWR VGND VPWR sky130_fd_sc_hd__decap_6
X_0083_ _1229_/CLK _0083_/D VGND VPWR _0084_/D VGND VPWR sky130_fd_sc_hd__dfxtp_1
XFILLER_32_464 VGND VPWR VGND VPWR sky130_fd_sc_hd__decap_12
X_0985_ _1017_/CLK _0985_/D VGND VPWR _0986_/D VGND VPWR sky130_fd_sc_hd__dfxtp_1
XFILLER_8_192 VGND VPWR VGND VPWR sky130_fd_sc_hd__decap_4
X_1606_ _1611_/CLK _1606_/D VGND VPWR _1607_/D VGND VPWR sky130_fd_sc_hd__dfxtp_1
X_1537_ _1578_/CLK _1537_/D VGND VPWR _1538_/D VGND VPWR sky130_fd_sc_hd__dfxtp_1
XFILLER_99_497 VGND VPWR VGND VPWR sky130_fd_sc_hd__decap_6
XFILLER_59_317 VGND VPWR VGND VPWR sky130_fd_sc_hd__decap_12
X_1468_ _1687_/CLK _1468_/D VGND VPWR _1469_/D VGND VPWR sky130_fd_sc_hd__dfxtp_1
XFILLER_86_136 VGND VPWR VGND VPWR sky130_fd_sc_hd__decap_4
X_1399_ _1754_/CLK _1399_/D VGND VPWR _1400_/D VGND VPWR sky130_fd_sc_hd__dfxtp_1
X_0419_ _1077_/CLK _0419_/D VGND VPWR _0420_/D VGND VPWR sky130_fd_sc_hd__dfxtp_1
XFILLER_86_169 VGND VPWR VGND VPWR sky130_fd_sc_hd__decap_6
XFILLER_74_309 VGND VPWR VGND VPWR sky130_fd_sc_hd__decap_12
XFILLER_67_361 VGND VPWR VGND VPWR sky130_fd_sc_hd__decap_4
XFILLER_15_409 VGND VPWR VGND VPWR sky130_fd_sc_hd__decap_12
XFILLER_82_342 VGND VPWR VGND VPWR sky130_fd_sc_hd__decap_12
XFILLER_55_556 VGND VPWR VGND VPWR sky130_fd_sc_hd__decap_4
XFILLER_27_269 VGND VPWR VGND VPWR sky130_fd_sc_hd__decap_8
XFILLER_11_604 VGND VPWR VGND VPWR sky130_fd_sc_hd__decap_12
XFILLER_10_136 VGND VPWR VGND VPWR sky130_fd_sc_hd__decap_4
XFILLER_77_169 VGND VPWR VGND VPWR sky130_fd_sc_hd__decap_3
XFILLER_37_40 VGND VPWR VGND VPWR sky130_fd_sc_hd__decap_12
XFILLER_18_269 VGND VPWR VGND VPWR sky130_fd_sc_hd__decap_12
XFILLER_46_589 VGND VPWR VGND VPWR sky130_fd_sc_hd__decap_12
XFILLER_61_537 VGND VPWR VGND VPWR sky130_fd_sc_hd__decap_12
XFILLER_14_453 VGND VPWR VGND VPWR sky130_fd_sc_hd__decap_3
X_0770_ _1827_/CLK _0770_/D VGND VPWR _0781_/D VGND VPWR sky130_fd_sc_hd__dfxtp_1
X_1322_ _1788_/CLK _1322_/D VGND VPWR _1323_/D VGND VPWR sky130_fd_sc_hd__dfxtp_1
XFILLER_68_136 VGND VPWR VGND VPWR sky130_fd_sc_hd__decap_4
XFILLER_68_158 VGND VPWR VGND VPWR sky130_fd_sc_hd__decap_8
XFILLER_56_309 VGND VPWR VGND VPWR sky130_fd_sc_hd__decap_4
X_1253_ _1272_/CLK _1253_/D VGND VPWR _1254_/D VGND VPWR sky130_fd_sc_hd__dfxtp_1
X_0204_ _1178_/CLK _0204_/D VGND VPWR _0205_/D VGND VPWR sky130_fd_sc_hd__dfxtp_1
XFILLER_49_361 VGND VPWR VGND VPWR sky130_fd_sc_hd__decap_4
X_1184_ _1185_/CLK _1184_/D VGND VPWR _1185_/D VGND VPWR sky130_fd_sc_hd__dfxtp_1
X_0135_ _1162_/CLK _0135_/D VGND VPWR _0136_/D VGND VPWR sky130_fd_sc_hd__dfxtp_1
XFILLER_37_589 VGND VPWR VGND VPWR sky130_fd_sc_hd__decap_6
X_0066_ _1635_/CLK _0066_/D VGND VPWR _0077_/D VGND VPWR sky130_fd_sc_hd__dfxtp_1
XFILLER_20_412 VGND VPWR VGND VPWR sky130_fd_sc_hd__decap_8
XFILLER_60_581 VGND VPWR VGND VPWR sky130_fd_sc_hd__decap_6
Xclkbuf_4_12_0_clk clkbuf_0_clk/X VGND VPWR clkbuf_4_12_0_clk/X VGND VPWR sky130_fd_sc_hd__clkbuf_1
X_0968_ _1826_/CLK _0968_/D VGND VPWR _0979_/D VGND VPWR sky130_fd_sc_hd__dfxtp_1
X_0899_ _0908_/CLK _0899_/D VGND VPWR _0900_/D VGND VPWR sky130_fd_sc_hd__dfxtp_1
XFILLER_101_200 VGND VPWR VGND VPWR sky130_fd_sc_hd__decap_4
XFILLER_55_331 VGND VPWR VGND VPWR sky130_fd_sc_hd__decap_4
XFILLER_15_217 VGND VPWR VGND VPWR sky130_fd_sc_hd__decap_6
XFILLER_28_589 VGND VPWR VGND VPWR sky130_fd_sc_hd__decap_12
XFILLER_55_353 VGND VPWR VGND VPWR sky130_fd_sc_hd__decap_8
XFILLER_30_209 VGND VPWR VGND VPWR sky130_fd_sc_hd__decap_4
XFILLER_7_449 VGND VPWR VGND VPWR sky130_fd_sc_hd__decap_12
XFILLER_23_75 VGND VPWR VGND VPWR sky130_fd_sc_hd__decap_4
XFILLER_99_57 VGND VPWR VGND VPWR sky130_fd_sc_hd__decap_6
XFILLER_99_79 VGND VPWR VGND VPWR sky130_fd_sc_hd__decap_4
XFILLER_105_561 VGND VPWR VGND VPWR sky130_fd_sc_hd__decap_8
XFILLER_78_445 VGND VPWR VGND VPWR sky130_fd_sc_hd__decap_4
XFILLER_38_309 VGND VPWR VGND VPWR sky130_fd_sc_hd__decap_12
XFILLER_0_57 VGND VPWR VGND VPWR sky130_fd_sc_hd__decap_12
XFILLER_64_60 VGND VPWR VGND VPWR sky130_fd_sc_hd__decap_4
XFILLER_61_389 VGND VPWR VGND VPWR sky130_fd_sc_hd__decap_3
X_1940_ _1956_/CLK _1940_/D VGND VPWR _1941_/D VGND VPWR sky130_fd_sc_hd__dfxtp_1
XFILLER_9_77 VGND VPWR VGND VPWR sky130_fd_sc_hd__decap_4
X_1871_ _1995_/CLK _1871_/D VGND VPWR _1872_/D VGND VPWR sky130_fd_sc_hd__dfxtp_1
X_0822_ _0831_/CLK _0822_/D VGND VPWR _0823_/D VGND VPWR sky130_fd_sc_hd__dfxtp_1
X_0753_ _0761_/CLK _0753_/D VGND VPWR _0754_/D VGND VPWR sky130_fd_sc_hd__dfxtp_1
XFILLER_6_493 VGND VPWR VGND VPWR sky130_fd_sc_hd__decap_4
X_0684_ _0898_/CLK _0684_/D VGND VPWR _0685_/D VGND VPWR sky130_fd_sc_hd__dfxtp_1
XFILLER_50_3 VGND VPWR VGND VPWR sky130_fd_sc_hd__decap_12
XFILLER_96_220 VGND VPWR VGND VPWR sky130_fd_sc_hd__decap_4
XFILLER_69_412 VGND VPWR VGND VPWR sky130_fd_sc_hd__decap_4
X_1305_ _1320_/CLK _1305_/D VGND VPWR _1306_/D VGND VPWR sky130_fd_sc_hd__dfxtp_1
XFILLER_84_437 VGND VPWR VGND VPWR sky130_fd_sc_hd__decap_12
X_1236_ _1244_/CLK _1236_/D VGND VPWR _1237_/D VGND VPWR sky130_fd_sc_hd__dfxtp_1
X_1167_ _1170_/CLK _1167_/D VGND VPWR _1168_/D VGND VPWR sky130_fd_sc_hd__dfxtp_1
X_0118_ _1138_/CLK _0118_/D VGND VPWR _0119_/D VGND VPWR sky130_fd_sc_hd__dfxtp_1
X_1098_ _1103_/CLK _1098_/D VGND VPWR _1099_/D VGND VPWR sky130_fd_sc_hd__dfxtp_1
X_0049_ _1841_/CLK _0049_/D VGND VPWR _0050_/D VGND VPWR sky130_fd_sc_hd__dfxtp_1
XFILLER_20_253 VGND VPWR VGND VPWR sky130_fd_sc_hd__decap_8
XFILLER_60_29 VGND VPWR VGND VPWR sky130_fd_sc_hd__decap_12
XFILLER_4_408 VGND VPWR VGND VPWR sky130_fd_sc_hd__decap_12
XFILLER_102_564 VGND VPWR VGND VPWR sky130_fd_sc_hd__decap_4
XFILLER_87_297 VGND VPWR VGND VPWR sky130_fd_sc_hd__decap_4
XFILLER_87_275 VGND VPWR VGND VPWR sky130_fd_sc_hd__decap_4
XFILLER_83_492 VGND VPWR VGND VPWR sky130_fd_sc_hd__decap_12
XFILLER_24_581 VGND VPWR VGND VPWR sky130_fd_sc_hd__decap_6
XFILLER_70_197 VGND VPWR VGND VPWR sky130_fd_sc_hd__decap_4
XFILLER_11_275 VGND VPWR VGND VPWR sky130_fd_sc_hd__decap_4
XFILLER_11_297 VGND VPWR VGND VPWR sky130_fd_sc_hd__decap_4
XFILLER_3_441 VGND VPWR VGND VPWR sky130_fd_sc_hd__decap_6
XFILLER_78_253 VGND VPWR VGND VPWR sky130_fd_sc_hd__decap_12
XFILLER_19_320 VGND VPWR VGND VPWR sky130_fd_sc_hd__decap_12
XFILLER_93_256 VGND VPWR VGND VPWR sky130_fd_sc_hd__decap_4
XFILLER_19_353 VGND VPWR VGND VPWR sky130_fd_sc_hd__decap_12
XFILLER_81_429 VGND VPWR VGND VPWR sky130_fd_sc_hd__decap_12
X_1021_ _1033_/CLK _1021_/D VGND VPWR _1022_/D VGND VPWR sky130_fd_sc_hd__dfxtp_1
XFILLER_22_529 VGND VPWR VGND VPWR sky130_fd_sc_hd__decap_3
XFILLER_98_3 VGND VPWR VGND VPWR sky130_fd_sc_hd__decap_12
XFILLER_15_592 VGND VPWR VGND VPWR sky130_fd_sc_hd__decap_4
X_1923_ _1936_/CLK _1923_/D VGND VPWR _1924_/D VGND VPWR sky130_fd_sc_hd__dfxtp_1
X_1854_ _1862_/CLK _1854_/D VGND VPWR _1856_/D VGND VPWR sky130_fd_sc_hd__dfxtp_1
X_1785_ _1788_/CLK _1785_/D VGND VPWR _1786_/D VGND VPWR sky130_fd_sc_hd__dfxtp_1
X_0805_ _0906_/CLK _0805_/D VGND VPWR _0806_/D VGND VPWR sky130_fd_sc_hd__dfxtp_1
X_0736_ _1147_/CLK _0736_/D VGND VPWR _0738_/D VGND VPWR sky130_fd_sc_hd__dfxtp_1
X_0667_ _0916_/CLK _0667_/D VGND VPWR _0668_/D VGND VPWR sky130_fd_sc_hd__dfxtp_1
XFILLER_69_220 VGND VPWR VGND VPWR sky130_fd_sc_hd__decap_4
X_0598_ _0632_/CLK _0598_/D VGND VPWR _0599_/D VGND VPWR sky130_fd_sc_hd__dfxtp_1
XFILLER_69_253 VGND VPWR VGND VPWR sky130_fd_sc_hd__decap_4
X_1219_ _1228_/CLK _1219_/D VGND VPWR _1220_/D VGND VPWR sky130_fd_sc_hd__dfxtp_1
XFILLER_25_389 VGND VPWR VGND VPWR sky130_fd_sc_hd__decap_3
XFILLER_80_473 VGND VPWR VGND VPWR sky130_fd_sc_hd__decap_3
XFILLER_71_28 VGND VPWR VGND VPWR sky130_fd_sc_hd__decap_4
XFILLER_52_197 VGND VPWR VGND VPWR sky130_fd_sc_hd__decap_12
XFILLER_0_433 VGND VPWR VGND VPWR sky130_fd_sc_hd__decap_12
XFILLER_0_477 VGND VPWR VGND VPWR sky130_fd_sc_hd__decap_12
XFILLER_63_429 VGND VPWR VGND VPWR sky130_fd_sc_hd__decap_12
XFILLER_16_356 VGND VPWR VGND VPWR sky130_fd_sc_hd__decap_8
XFILLER_45_51 VGND VPWR VGND VPWR sky130_fd_sc_hd__decap_4
XFILLER_71_495 VGND VPWR VGND VPWR sky130_fd_sc_hd__decap_8
XFILLER_6_67 VGND VPWR VGND VPWR sky130_fd_sc_hd__decap_12
X_1570_ _1592_/CLK _1570_/D VGND VPWR _1571_/D VGND VPWR sky130_fd_sc_hd__dfxtp_1
X_0521_ _0529_/CLK _0521_/D VGND VPWR _0522_/D VGND VPWR sky130_fd_sc_hd__dfxtp_1
X_0452_ _0585_/CLK _0452_/D VGND VPWR _0453_/D VGND VPWR sky130_fd_sc_hd__dfxtp_1
X_0383_ _1103_/CLK _0383_/D VGND VPWR _0384_/D VGND VPWR sky130_fd_sc_hd__dfxtp_1
XFILLER_100_309 VGND VPWR VGND VPWR sky130_fd_sc_hd__decap_12
XFILLER_13_3 VGND VPWR VGND VPWR sky130_fd_sc_hd__decap_12
XFILLER_66_245 VGND VPWR VGND VPWR sky130_fd_sc_hd__decap_6
XFILLER_66_289 VGND VPWR VGND VPWR sky130_fd_sc_hd__decap_12
X_1004_ _1010_/CLK _1004_/D VGND VPWR _1005_/D VGND VPWR sky130_fd_sc_hd__dfxtp_1
XFILLER_22_359 VGND VPWR VGND VPWR sky130_fd_sc_hd__decap_4
X_1906_ _1936_/CLK _1906_/D VGND VPWR _1907_/D VGND VPWR sky130_fd_sc_hd__dfxtp_1
X_1837_ _1846_/CLK _1837_/D VGND VPWR _1838_/D VGND VPWR sky130_fd_sc_hd__dfxtp_1
X_1768_ _1772_/CLK _1768_/D VGND VPWR _1769_/D VGND VPWR sky130_fd_sc_hd__dfxtp_1
X_1699_ _1710_/CLK _1699_/D VGND VPWR _1700_/D VGND VPWR sky130_fd_sc_hd__dfxtp_1
XFILLER_89_337 VGND VPWR VGND VPWR sky130_fd_sc_hd__decap_12
XFILLER_104_626 VGND VPWR VGND VPWR sky130_fd_sc_hd__decap_4
X_0719_ _0793_/CLK _0719_/D VGND VPWR _0720_/D VGND VPWR sky130_fd_sc_hd__dfxtp_1
XFILLER_103_169 VGND VPWR VGND VPWR sky130_fd_sc_hd__decap_12
XFILLER_72_248 VGND VPWR VGND VPWR sky130_fd_sc_hd__decap_4
XFILLER_13_337 VGND VPWR VGND VPWR sky130_fd_sc_hd__decap_12
Xclkbuf_leaf_114_clk clkbuf_4_1_0_clk/X VGND VPWR _1747_/CLK VGND VPWR sky130_fd_sc_hd__clkbuf_16
XFILLER_0_241 VGND VPWR VGND VPWR sky130_fd_sc_hd__decap_8
XFILLER_95_329 VGND VPWR VGND VPWR sky130_fd_sc_hd__decap_6
XFILLER_88_381 VGND VPWR VGND VPWR sky130_fd_sc_hd__decap_4
XFILLER_44_473 VGND VPWR VGND VPWR sky130_fd_sc_hd__decap_3
XFILLER_16_197 VGND VPWR VGND VPWR sky130_fd_sc_hd__decap_6
XFILLER_71_281 VGND VPWR VGND VPWR sky130_fd_sc_hd__decap_12
XPHY_170 VGND VPWR VGND VPWR sky130_fd_sc_hd__decap_3
XFILLER_12_381 VGND VPWR VGND VPWR sky130_fd_sc_hd__decap_4
XPHY_181 VGND VPWR VGND VPWR sky130_fd_sc_hd__decap_3
XPHY_192 VGND VPWR VGND VPWR sky130_fd_sc_hd__decap_3
Xclkbuf_leaf_105_clk clkbuf_4_6_0_clk/X VGND VPWR _1862_/CLK VGND VPWR sky130_fd_sc_hd__clkbuf_16
X_1622_ _1673_/CLK _1622_/D VGND VPWR _1623_/D VGND VPWR sky130_fd_sc_hd__dfxtp_1
X_1553_ _1592_/CLK _1553_/D VGND VPWR _1554_/D VGND VPWR sky130_fd_sc_hd__dfxtp_1
XFILLER_98_101 VGND VPWR VGND VPWR sky130_fd_sc_hd__decap_12
X_1484_ _1965_/CLK _1484_/D VGND VPWR _1485_/D VGND VPWR sky130_fd_sc_hd__dfxtp_1
X_0504_ _0508_/CLK _0504_/D VGND VPWR _0505_/D VGND VPWR sky130_fd_sc_hd__dfxtp_1
X_0435_ _0973_/CLK _0435_/D VGND VPWR _0436_/D VGND VPWR sky130_fd_sc_hd__dfxtp_1
XFILLER_86_329 VGND VPWR VGND VPWR sky130_fd_sc_hd__decap_4
XFILLER_67_532 VGND VPWR VGND VPWR sky130_fd_sc_hd__decap_4
X_0366_ _1112_/CLK _0366_/D VGND VPWR _0367_/D VGND VPWR sky130_fd_sc_hd__dfxtp_1
X_0297_ _0539_/CLK _0297_/D VGND VPWR _0308_/D VGND VPWR sky130_fd_sc_hd__dfxtp_1
XFILLER_35_473 VGND VPWR VGND VPWR sky130_fd_sc_hd__decap_4
XFILLER_50_421 VGND VPWR VGND VPWR sky130_fd_sc_hd__decap_12
XFILLER_2_528 VGND VPWR VGND VPWR sky130_fd_sc_hd__decap_4
XFILLER_104_489 VGND VPWR VGND VPWR sky130_fd_sc_hd__decap_3
XFILLER_85_373 VGND VPWR VGND VPWR sky130_fd_sc_hd__decap_12
XFILLER_53_281 VGND VPWR VGND VPWR sky130_fd_sc_hd__decap_8
XFILLER_49_521 VGND VPWR VGND VPWR sky130_fd_sc_hd__decap_4
X_0220_ _1594_/CLK _0220_/D VGND VPWR _0231_/D VGND VPWR sky130_fd_sc_hd__dfxtp_1
X_0151_ _1170_/CLK _0151_/D VGND VPWR _0152_/D VGND VPWR sky130_fd_sc_hd__dfxtp_1
X_0082_ _1229_/CLK _0082_/D VGND VPWR _0083_/D VGND VPWR sky130_fd_sc_hd__dfxtp_1
XFILLER_44_281 VGND VPWR VGND VPWR sky130_fd_sc_hd__decap_6
XFILLER_32_421 VGND VPWR VGND VPWR sky130_fd_sc_hd__decap_6
XFILLER_80_3 VGND VPWR VGND VPWR sky130_fd_sc_hd__decap_4
X_0984_ _1039_/CLK _0984_/D VGND VPWR _0985_/D VGND VPWR sky130_fd_sc_hd__dfxtp_1
X_1605_ _1611_/CLK _1605_/D VGND VPWR _1606_/D VGND VPWR sky130_fd_sc_hd__dfxtp_1
X_1536_ _1578_/CLK _1536_/D VGND VPWR _1537_/D VGND VPWR sky130_fd_sc_hd__dfxtp_1
XFILLER_99_443 VGND VPWR VGND VPWR sky130_fd_sc_hd__decap_4
XFILLER_99_465 VGND VPWR VGND VPWR sky130_fd_sc_hd__decap_4
X_1467_ _1726_/CLK _1467_/D VGND VPWR _1468_/D VGND VPWR sky130_fd_sc_hd__dfxtp_1
XFILLER_59_329 VGND VPWR VGND VPWR sky130_fd_sc_hd__decap_6
X_1398_ _1754_/CLK _1398_/D VGND VPWR _1399_/D VGND VPWR sky130_fd_sc_hd__dfxtp_1
X_0418_ _0539_/CLK _0418_/D VGND VPWR _0429_/D VGND VPWR sky130_fd_sc_hd__dfxtp_1
X_0349_ _1181_/CLK _0349_/D VGND VPWR _0350_/D VGND VPWR sky130_fd_sc_hd__dfxtp_1
XFILLER_82_354 VGND VPWR VGND VPWR sky130_fd_sc_hd__decap_8
XFILLER_82_321 VGND VPWR VGND VPWR sky130_fd_sc_hd__decap_4
XFILLER_70_505 VGND VPWR VGND VPWR sky130_fd_sc_hd__decap_6
XFILLER_35_281 VGND VPWR VGND VPWR sky130_fd_sc_hd__decap_6
XFILLER_50_284 VGND VPWR VGND VPWR sky130_fd_sc_hd__decap_4
XFILLER_2_358 VGND VPWR VGND VPWR sky130_fd_sc_hd__decap_6
XFILLER_104_253 VGND VPWR VGND VPWR sky130_fd_sc_hd__decap_12
XFILLER_78_605 VGND VPWR VGND VPWR sky130_fd_sc_hd__decap_4
XFILLER_92_129 VGND VPWR VGND VPWR sky130_fd_sc_hd__decap_8
XFILLER_46_513 VGND VPWR VGND VPWR sky130_fd_sc_hd__decap_12
XFILLER_37_52 VGND VPWR VGND VPWR sky130_fd_sc_hd__decap_4
XFILLER_61_505 VGND VPWR VGND VPWR sky130_fd_sc_hd__decap_12
XFILLER_14_421 VGND VPWR VGND VPWR sky130_fd_sc_hd__decap_12
XFILLER_61_549 VGND VPWR VGND VPWR sky130_fd_sc_hd__decap_8
X_1321_ _1788_/CLK _1321_/D VGND VPWR _1322_/D VGND VPWR sky130_fd_sc_hd__dfxtp_1
XFILLER_78_81 VGND VPWR VGND VPWR sky130_fd_sc_hd__decap_3
X_1252_ _1272_/CLK _1252_/D VGND VPWR _1253_/D VGND VPWR sky130_fd_sc_hd__dfxtp_1
X_0203_ _1178_/CLK _0203_/D VGND VPWR _0204_/D VGND VPWR sky130_fd_sc_hd__dfxtp_1
X_1183_ _1578_/CLK _1183_/D VGND VPWR _1183_/Q VGND VPWR sky130_fd_sc_hd__dfxtp_1
XFILLER_37_557 VGND VPWR VGND VPWR sky130_fd_sc_hd__decap_3
X_0134_ _1228_/CLK _0134_/D VGND VPWR _0135_/D VGND VPWR sky130_fd_sc_hd__dfxtp_1
XFILLER_17_281 VGND VPWR VGND VPWR sky130_fd_sc_hd__decap_8
X_0065_ _1185_/CLK _0065_/D VGND VPWR _0067_/D VGND VPWR sky130_fd_sc_hd__dfxtp_1
X_0967_ _1039_/CLK _0967_/D VGND VPWR _0969_/D VGND VPWR sky130_fd_sc_hd__dfxtp_1
X_0898_ _0898_/CLK _0898_/D VGND VPWR _0899_/D VGND VPWR sky130_fd_sc_hd__dfxtp_1
XFILLER_58_29 VGND VPWR VGND VPWR sky130_fd_sc_hd__decap_12
X_1519_ _1587_/CLK _1519_/D VGND VPWR _1520_/D VGND VPWR sky130_fd_sc_hd__dfxtp_1
XFILLER_101_256 VGND VPWR VGND VPWR sky130_fd_sc_hd__decap_4
Xclkbuf_leaf_94_clk clkbuf_4_5_0_clk/X VGND VPWR _1600_/CLK VGND VPWR sky130_fd_sc_hd__clkbuf_16
XFILLER_43_505 VGND VPWR VGND VPWR sky130_fd_sc_hd__decap_4
XFILLER_43_549 VGND VPWR VGND VPWR sky130_fd_sc_hd__decap_8
XFILLER_7_417 VGND VPWR VGND VPWR sky130_fd_sc_hd__decap_4
XFILLER_3_601 VGND VPWR VGND VPWR sky130_fd_sc_hd__decap_12