* NGSPICE file created from shift_reg.ext - technology: sky130A

* Black-box entry subcircuit for sky130_fd_sc_hd__decap_6 abstract view
.subckt sky130_fd_sc_hd__decap_6 VGND VNB VPB VPWR
.ends

* Black-box entry subcircuit for sky130_fd_sc_hd__dfxtp_1 abstract view
.subckt sky130_fd_sc_hd__dfxtp_1 CLK D VGND VNB VPB VPWR Q
.ends

* Black-box entry subcircuit for sky130_fd_sc_hd__decap_12 abstract view
.subckt sky130_fd_sc_hd__decap_12 VGND VNB VPB VPWR
.ends

* Black-box entry subcircuit for sky130_fd_sc_hd__decap_4 abstract view
.subckt sky130_fd_sc_hd__decap_4 VGND VNB VPB VPWR
.ends

* Black-box entry subcircuit for sky130_fd_sc_hd__fill_1 abstract view
.subckt sky130_fd_sc_hd__fill_1 VGND VNB VPB VPWR
.ends

* Black-box entry subcircuit for sky130_fd_sc_hd__decap_3 abstract view
.subckt sky130_fd_sc_hd__decap_3 VGND VNB VPB VPWR
.ends

* Black-box entry subcircuit for sky130_fd_sc_hd__decap_8 abstract view
.subckt sky130_fd_sc_hd__decap_8 VGND VNB VPB VPWR
.ends

* Black-box entry subcircuit for sky130_fd_sc_hd__tapvpwrvgnd_1 abstract view
.subckt sky130_fd_sc_hd__tapvpwrvgnd_1 VGND VPWR
.ends

* Black-box entry subcircuit for sky130_fd_sc_hd__clkbuf_1 abstract view
.subckt sky130_fd_sc_hd__clkbuf_1 A VGND VNB VPB VPWR X
.ends

* Black-box entry subcircuit for sky130_fd_sc_hd__fill_2 abstract view
.subckt sky130_fd_sc_hd__fill_2 VGND VNB VPB VPWR
.ends

* Black-box entry subcircuit for sky130_fd_sc_hd__clkbuf_16 abstract view
.subckt sky130_fd_sc_hd__clkbuf_16 A VGND VNB VPB VPWR X
.ends

* Black-box entry subcircuit for sky130_fd_sc_hd__dfxtp_2 abstract view
.subckt sky130_fd_sc_hd__dfxtp_2 CLK D VGND VNB VPB VPWR Q
.ends

* Black-box entry subcircuit for sky130_fd_sc_hd__diode_2 abstract view
.subckt sky130_fd_sc_hd__diode_2 DIODE VGND VNB VPB VPWR
.ends

* Black-box entry subcircuit for sky130_fd_sc_hd__clkbuf_2 abstract view
.subckt sky130_fd_sc_hd__clkbuf_2 A VGND VNB VPB VPWR X
.ends

.subckt shift_reg VGND VPWR clk din out_window[0] out_window[1] out_window[2] out_window[3]
XFILLER_67_553 VGND VGND VPWR VPWR sky130_fd_sc_hd__decap_6
X_0367_ _1088_/CLK _0367_/D VGND VGND VPWR VPWR _0368_/D sky130_fd_sc_hd__dfxtp_1
XFILLER_39_266 VGND VGND VPWR VPWR sky130_fd_sc_hd__decap_12
X_0298_ _0316_/CLK _0298_/D VGND VGND VPWR VPWR _0299_/D sky130_fd_sc_hd__dfxtp_1
XFILLER_54_247 VGND VGND VPWR VPWR sky130_fd_sc_hd__decap_4
XFILLER_82_589 VGND VGND VPWR VPWR sky130_fd_sc_hd__decap_12
XFILLER_23_612 VGND VGND VPWR VPWR sky130_fd_sc_hd__decap_4
XFILLER_52_29 VGND VGND VPWR VPWR sky130_fd_sc_hd__fill_1
XFILLER_104_433 VGND VGND VPWR VPWR sky130_fd_sc_hd__decap_3
XFILLER_104_477 VGND VGND VPWR VPWR sky130_fd_sc_hd__decap_12
XFILLER_58_531 VGND VGND VPWR VPWR sky130_fd_sc_hd__fill_1
XFILLER_92_309 VGND VGND VPWR VPWR sky130_fd_sc_hd__decap_12
XFILLER_93_47 VGND VGND VPWR VPWR sky130_fd_sc_hd__decap_8
XFILLER_45_203 VGND VGND VPWR VPWR sky130_fd_sc_hd__fill_1
XFILLER_45_225 VGND VGND VPWR VPWR sky130_fd_sc_hd__decap_3
XFILLER_33_409 VGND VGND VPWR VPWR sky130_fd_sc_hd__decap_12
XFILLER_73_556 VGND VGND VPWR VPWR sky130_fd_sc_hd__decap_4
XFILLER_14_601 VGND VGND VPWR VPWR sky130_fd_sc_hd__decap_4
XFILLER_42_73 VGND VGND VPWR VPWR sky130_fd_sc_hd__decap_8
X_1270_ _1302_/CLK _1270_/D VGND VGND VPWR VPWR _1271_/D sky130_fd_sc_hd__dfxtp_1
XFILLER_49_553 VGND VGND VPWR VPWR sky130_fd_sc_hd__decap_6
X_0221_ _0316_/CLK _0221_/D VGND VGND VPWR VPWR _0222_/D sky130_fd_sc_hd__dfxtp_1
XFILLER_67_81 VGND VGND VPWR VPWR sky130_fd_sc_hd__decap_4
X_0152_ _1162_/CLK _0152_/D VGND VGND VPWR VPWR _0153_/D sky130_fd_sc_hd__dfxtp_1
XFILLER_36_269 VGND VGND VPWR VPWR sky130_fd_sc_hd__decap_12
XFILLER_64_545 VGND VGND VPWR VPWR sky130_fd_sc_hd__decap_3
XFILLER_91_397 VGND VGND VPWR VPWR sky130_fd_sc_hd__fill_1
XFILLER_91_386 VGND VGND VPWR VPWR sky130_fd_sc_hd__decap_6
XFILLER_91_364 VGND VGND VPWR VPWR sky130_fd_sc_hd__decap_6
X_0083_ _1229_/CLK _0083_/D VGND VGND VPWR VPWR _0084_/D sky130_fd_sc_hd__dfxtp_1
XFILLER_32_464 VGND VGND VPWR VPWR sky130_fd_sc_hd__decap_12
X_0985_ _1017_/CLK _0985_/D VGND VGND VPWR VPWR _0986_/D sky130_fd_sc_hd__dfxtp_1
XFILLER_8_192 VGND VGND VPWR VPWR sky130_fd_sc_hd__decap_4
X_1606_ _1611_/CLK _1606_/D VGND VGND VPWR VPWR _1607_/D sky130_fd_sc_hd__dfxtp_1
XFILLER_99_497 VGND VGND VPWR VPWR sky130_fd_sc_hd__decap_6
X_1537_ _1578_/CLK _1537_/D VGND VGND VPWR VPWR _1538_/D sky130_fd_sc_hd__dfxtp_1
XFILLER_59_317 VGND VGND VPWR VPWR sky130_fd_sc_hd__decap_12
XFILLER_86_136 VGND VGND VPWR VPWR sky130_fd_sc_hd__decap_4
X_1468_ _1687_/CLK _1468_/D VGND VGND VPWR VPWR _1469_/D sky130_fd_sc_hd__dfxtp_1
X_0419_ _1077_/CLK _0419_/D VGND VGND VPWR VPWR _0420_/D sky130_fd_sc_hd__dfxtp_1
XFILLER_86_169 VGND VGND VPWR VPWR sky130_fd_sc_hd__decap_6
X_1399_ _1754_/CLK _1399_/D VGND VGND VPWR VPWR _1400_/D sky130_fd_sc_hd__dfxtp_1
XFILLER_67_361 VGND VGND VPWR VPWR sky130_fd_sc_hd__decap_4
XFILLER_74_309 VGND VGND VPWR VPWR sky130_fd_sc_hd__decap_12
XFILLER_27_203 VGND VGND VPWR VPWR sky130_fd_sc_hd__fill_1
XFILLER_82_342 VGND VGND VPWR VPWR sky130_fd_sc_hd__decap_12
XFILLER_15_409 VGND VGND VPWR VPWR sky130_fd_sc_hd__decap_12
XFILLER_55_556 VGND VGND VPWR VPWR sky130_fd_sc_hd__decap_4
XTAP_1129 VGND VPWR sky130_fd_sc_hd__tapvpwrvgnd_1
XTAP_1118 VGND VPWR sky130_fd_sc_hd__tapvpwrvgnd_1
XTAP_1107 VGND VPWR sky130_fd_sc_hd__tapvpwrvgnd_1
XFILLER_27_269 VGND VGND VPWR VPWR sky130_fd_sc_hd__decap_8
XFILLER_11_604 VGND VGND VPWR VPWR sky130_fd_sc_hd__decap_12
XFILLER_10_136 VGND VGND VPWR VPWR sky130_fd_sc_hd__decap_4
XFILLER_93_629 VGND VGND VPWR VPWR sky130_fd_sc_hd__fill_1
XFILLER_77_169 VGND VGND VPWR VPWR sky130_fd_sc_hd__decap_3
XFILLER_37_40 VGND VGND VPWR VPWR sky130_fd_sc_hd__decap_12
XFILLER_46_567 VGND VGND VPWR VPWR sky130_fd_sc_hd__fill_1
XFILLER_18_269 VGND VGND VPWR VPWR sky130_fd_sc_hd__decap_12
XFILLER_46_589 VGND VGND VPWR VPWR sky130_fd_sc_hd__decap_12
XFILLER_61_537 VGND VGND VPWR VPWR sky130_fd_sc_hd__decap_12
XFILLER_14_453 VGND VGND VPWR VPWR sky130_fd_sc_hd__decap_3
X_0770_ _1827_/CLK _0770_/D VGND VGND VPWR VPWR _0781_/D sky130_fd_sc_hd__dfxtp_1
XFILLER_69_615 VGND VGND VPWR VPWR sky130_fd_sc_hd__fill_1
X_1322_ _1788_/CLK _1322_/D VGND VGND VPWR VPWR _1323_/D sky130_fd_sc_hd__dfxtp_1
XFILLER_68_136 VGND VGND VPWR VPWR sky130_fd_sc_hd__decap_4
XFILLER_84_629 VGND VGND VPWR VPWR sky130_fd_sc_hd__fill_1
X_1253_ _1272_/CLK _1253_/D VGND VGND VPWR VPWR _1254_/D sky130_fd_sc_hd__dfxtp_1
XFILLER_56_309 VGND VGND VPWR VPWR sky130_fd_sc_hd__decap_4
XFILLER_68_158 VGND VGND VPWR VPWR sky130_fd_sc_hd__decap_8
XFILLER_49_361 VGND VGND VPWR VPWR sky130_fd_sc_hd__decap_4
X_0204_ _1178_/CLK _0204_/D VGND VGND VPWR VPWR _0205_/D sky130_fd_sc_hd__dfxtp_1
X_1184_ _1185_/CLK _1184_/D VGND VGND VPWR VPWR _1185_/D sky130_fd_sc_hd__dfxtp_1
XFILLER_37_589 VGND VGND VPWR VPWR sky130_fd_sc_hd__decap_6
X_0135_ _1162_/CLK _0135_/D VGND VGND VPWR VPWR _0136_/D sky130_fd_sc_hd__dfxtp_1
X_0066_ _1635_/CLK _0066_/D VGND VGND VPWR VPWR _0077_/D sky130_fd_sc_hd__dfxtp_1
XFILLER_20_412 VGND VGND VPWR VPWR sky130_fd_sc_hd__decap_8
XFILLER_60_581 VGND VGND VPWR VPWR sky130_fd_sc_hd__decap_6
X_0968_ _1826_/CLK _0968_/D VGND VGND VPWR VPWR _0979_/D sky130_fd_sc_hd__dfxtp_1
Xclkbuf_4_12_0_clk clkbuf_0_clk/X VGND VGND VPWR VPWR clkbuf_4_12_0_clk/X sky130_fd_sc_hd__clkbuf_1
X_0899_ _0908_/CLK _0899_/D VGND VGND VPWR VPWR _0900_/D sky130_fd_sc_hd__dfxtp_1
XFILLER_101_200 VGND VGND VPWR VPWR sky130_fd_sc_hd__decap_4
XFILLER_75_629 VGND VGND VPWR VPWR sky130_fd_sc_hd__fill_1
XFILLER_59_169 VGND VGND VPWR VPWR sky130_fd_sc_hd__fill_2
XFILLER_74_139 VGND VGND VPWR VPWR sky130_fd_sc_hd__fill_1
XFILLER_55_331 VGND VGND VPWR VPWR sky130_fd_sc_hd__decap_4
XFILLER_74_27 VGND VGND VPWR VPWR sky130_fd_sc_hd__fill_1
XFILLER_15_217 VGND VGND VPWR VPWR sky130_fd_sc_hd__decap_6
XFILLER_28_589 VGND VGND VPWR VPWR sky130_fd_sc_hd__decap_12
XFILLER_55_353 VGND VGND VPWR VPWR sky130_fd_sc_hd__decap_8
XFILLER_30_209 VGND VGND VPWR VPWR sky130_fd_sc_hd__decap_4
XFILLER_7_449 VGND VGND VPWR VPWR sky130_fd_sc_hd__decap_12
XFILLER_23_75 VGND VGND VPWR VPWR sky130_fd_sc_hd__decap_4
XFILLER_99_79 VGND VGND VPWR VPWR sky130_fd_sc_hd__decap_4
XFILLER_99_57 VGND VGND VPWR VPWR sky130_fd_sc_hd__decap_6
XFILLER_105_561 VGND VGND VPWR VPWR sky130_fd_sc_hd__decap_8
XFILLER_105_594 VGND VGND VPWR VPWR sky130_fd_sc_hd__fill_2
XFILLER_78_445 VGND VGND VPWR VPWR sky130_fd_sc_hd__decap_4
XFILLER_38_309 VGND VGND VPWR VPWR sky130_fd_sc_hd__decap_12
XFILLER_66_629 VGND VGND VPWR VPWR sky130_fd_sc_hd__fill_1
XFILLER_0_57 VGND VGND VPWR VPWR sky130_fd_sc_hd__decap_12
XFILLER_64_60 VGND VGND VPWR VPWR sky130_fd_sc_hd__decap_4
X_1940_ _1956_/CLK _1940_/D VGND VGND VPWR VPWR _1941_/D sky130_fd_sc_hd__dfxtp_1
XFILLER_61_389 VGND VGND VPWR VPWR sky130_fd_sc_hd__decap_3
XFILLER_9_77 VGND VGND VPWR VPWR sky130_fd_sc_hd__decap_4
X_1871_ _1995_/CLK _1871_/D VGND VGND VPWR VPWR _1872_/D sky130_fd_sc_hd__dfxtp_1
X_0822_ _0831_/CLK _0822_/D VGND VGND VPWR VPWR _0823_/D sky130_fd_sc_hd__dfxtp_1
X_0753_ _0761_/CLK _0753_/D VGND VGND VPWR VPWR _0754_/D sky130_fd_sc_hd__dfxtp_1
X_0684_ _0898_/CLK _0684_/D VGND VGND VPWR VPWR _0685_/D sky130_fd_sc_hd__dfxtp_1
XFILLER_6_493 VGND VGND VPWR VPWR sky130_fd_sc_hd__decap_4
XFILLER_50_3 VGND VGND VPWR VPWR sky130_fd_sc_hd__decap_12
XFILLER_96_220 VGND VGND VPWR VPWR sky130_fd_sc_hd__decap_4
XFILLER_69_412 VGND VGND VPWR VPWR sky130_fd_sc_hd__decap_4
X_1305_ _1320_/CLK _1305_/D VGND VGND VPWR VPWR _1306_/D sky130_fd_sc_hd__dfxtp_1
XFILLER_84_437 VGND VGND VPWR VPWR sky130_fd_sc_hd__decap_12
XFILLER_57_629 VGND VGND VPWR VPWR sky130_fd_sc_hd__fill_1
X_1236_ _1244_/CLK _1236_/D VGND VGND VPWR VPWR _1237_/D sky130_fd_sc_hd__dfxtp_1
XFILLER_56_139 VGND VGND VPWR VPWR sky130_fd_sc_hd__fill_1
X_1167_ _1170_/CLK _1167_/D VGND VGND VPWR VPWR _1168_/D sky130_fd_sc_hd__dfxtp_1
XFILLER_25_559 VGND VGND VPWR VPWR sky130_fd_sc_hd__fill_1
X_0118_ _1138_/CLK _0118_/D VGND VGND VPWR VPWR _0119_/D sky130_fd_sc_hd__dfxtp_1
X_1098_ _1103_/CLK _1098_/D VGND VGND VPWR VPWR _1099_/D sky130_fd_sc_hd__dfxtp_1
X_0049_ _1841_/CLK _0049_/D VGND VGND VPWR VPWR _0050_/D sky130_fd_sc_hd__dfxtp_1
XFILLER_20_253 VGND VGND VPWR VPWR sky130_fd_sc_hd__decap_8
XFILLER_60_29 VGND VGND VPWR VPWR sky130_fd_sc_hd__decap_12
XFILLER_4_408 VGND VGND VPWR VPWR sky130_fd_sc_hd__decap_12
XFILLER_102_564 VGND VGND VPWR VPWR sky130_fd_sc_hd__decap_4
XFILLER_48_607 VGND VGND VPWR VPWR sky130_fd_sc_hd__fill_1
XFILLER_87_297 VGND VGND VPWR VPWR sky130_fd_sc_hd__decap_4
XFILLER_87_275 VGND VGND VPWR VPWR sky130_fd_sc_hd__decap_4
XFILLER_83_492 VGND VGND VPWR VPWR sky130_fd_sc_hd__decap_12
XFILLER_43_345 VGND VGND VPWR VPWR sky130_fd_sc_hd__fill_1
XFILLER_70_153 VGND VGND VPWR VPWR sky130_fd_sc_hd__fill_1
XFILLER_24_581 VGND VGND VPWR VPWR sky130_fd_sc_hd__decap_6
XFILLER_70_197 VGND VGND VPWR VPWR sky130_fd_sc_hd__decap_4
XFILLER_11_275 VGND VGND VPWR VPWR sky130_fd_sc_hd__decap_4
XFILLER_11_297 VGND VGND VPWR VPWR sky130_fd_sc_hd__decap_4
XFILLER_3_441 VGND VGND VPWR VPWR sky130_fd_sc_hd__decap_6
XTAP_507 VGND VPWR sky130_fd_sc_hd__tapvpwrvgnd_1
XTAP_518 VGND VPWR sky130_fd_sc_hd__tapvpwrvgnd_1
XTAP_529 VGND VPWR sky130_fd_sc_hd__tapvpwrvgnd_1
XFILLER_78_253 VGND VGND VPWR VPWR sky130_fd_sc_hd__decap_12
XFILLER_39_629 VGND VGND VPWR VPWR sky130_fd_sc_hd__fill_1
XFILLER_93_256 VGND VGND VPWR VPWR sky130_fd_sc_hd__decap_4
XFILLER_93_223 VGND VGND VPWR VPWR sky130_fd_sc_hd__fill_1
XFILLER_19_320 VGND VGND VPWR VPWR sky130_fd_sc_hd__decap_12
XFILLER_81_429 VGND VGND VPWR VPWR sky130_fd_sc_hd__decap_12
XFILLER_19_353 VGND VGND VPWR VPWR sky130_fd_sc_hd__decap_12
X_1021_ _1033_/CLK _1021_/D VGND VGND VPWR VPWR _1022_/D sky130_fd_sc_hd__dfxtp_1
XFILLER_98_3 VGND VGND VPWR VPWR sky130_fd_sc_hd__decap_12
XFILLER_22_529 VGND VGND VPWR VPWR sky130_fd_sc_hd__decap_3
XTAP_1290 VGND VPWR sky130_fd_sc_hd__tapvpwrvgnd_1
XFILLER_91_91 VGND VGND VPWR VPWR sky130_fd_sc_hd__fill_1
XFILLER_15_592 VGND VGND VPWR VPWR sky130_fd_sc_hd__decap_4
X_1923_ _1936_/CLK _1923_/D VGND VGND VPWR VPWR _1924_/D sky130_fd_sc_hd__dfxtp_1
XFILLER_30_551 VGND VGND VPWR VPWR sky130_fd_sc_hd__fill_1
X_1854_ _1862_/CLK _1854_/D VGND VGND VPWR VPWR _1856_/D sky130_fd_sc_hd__dfxtp_1
X_0805_ _0906_/CLK _0805_/D VGND VGND VPWR VPWR _0806_/D sky130_fd_sc_hd__dfxtp_1
X_1785_ _1788_/CLK _1785_/D VGND VGND VPWR VPWR _1786_/D sky130_fd_sc_hd__dfxtp_1
X_0736_ _1147_/CLK _0736_/D VGND VGND VPWR VPWR _0738_/D sky130_fd_sc_hd__dfxtp_1
X_0667_ _0916_/CLK _0667_/D VGND VGND VPWR VPWR _0668_/D sky130_fd_sc_hd__dfxtp_1
XFILLER_69_220 VGND VGND VPWR VPWR sky130_fd_sc_hd__decap_4
X_0598_ _0632_/CLK _0598_/D VGND VGND VPWR VPWR _0599_/D sky130_fd_sc_hd__dfxtp_1
XFILLER_69_253 VGND VGND VPWR VPWR sky130_fd_sc_hd__decap_4
X_1219_ _1228_/CLK _1219_/D VGND VGND VPWR VPWR _1220_/D sky130_fd_sc_hd__dfxtp_1
XFILLER_80_473 VGND VGND VPWR VPWR sky130_fd_sc_hd__decap_3
XFILLER_25_389 VGND VGND VPWR VPWR sky130_fd_sc_hd__decap_3
XFILLER_71_28 VGND VGND VPWR VPWR sky130_fd_sc_hd__decap_4
XFILLER_52_197 VGND VGND VPWR VPWR sky130_fd_sc_hd__decap_12
XFILLER_4_205 VGND VGND VPWR VPWR sky130_fd_sc_hd__fill_1
XFILLER_0_433 VGND VGND VPWR VPWR sky130_fd_sc_hd__decap_12
XFILLER_0_477 VGND VGND VPWR VPWR sky130_fd_sc_hd__decap_12
XFILLER_63_429 VGND VGND VPWR VPWR sky130_fd_sc_hd__decap_12
XFILLER_16_356 VGND VGND VPWR VPWR sky130_fd_sc_hd__decap_8
XFILLER_45_51 VGND VGND VPWR VPWR sky130_fd_sc_hd__decap_4
XFILLER_31_315 VGND VGND VPWR VPWR sky130_fd_sc_hd__fill_1
XFILLER_71_495 VGND VGND VPWR VPWR sky130_fd_sc_hd__decap_8
XFILLER_6_67 VGND VGND VPWR VPWR sky130_fd_sc_hd__decap_12
X_1570_ _1592_/CLK _1570_/D VGND VGND VPWR VPWR _1571_/D sky130_fd_sc_hd__dfxtp_1
X_0521_ _0529_/CLK _0521_/D VGND VGND VPWR VPWR _0522_/D sky130_fd_sc_hd__dfxtp_1
XTAP_315 VGND VPWR sky130_fd_sc_hd__tapvpwrvgnd_1
XTAP_304 VGND VPWR sky130_fd_sc_hd__tapvpwrvgnd_1
X_0452_ _0585_/CLK _0452_/D VGND VGND VPWR VPWR _0453_/D sky130_fd_sc_hd__dfxtp_1
XTAP_348 VGND VPWR sky130_fd_sc_hd__tapvpwrvgnd_1
XTAP_337 VGND VPWR sky130_fd_sc_hd__tapvpwrvgnd_1
XTAP_326 VGND VPWR sky130_fd_sc_hd__tapvpwrvgnd_1
XFILLER_100_309 VGND VGND VPWR VPWR sky130_fd_sc_hd__decap_12
X_0383_ _1103_/CLK _0383_/D VGND VGND VPWR VPWR _0384_/D sky130_fd_sc_hd__dfxtp_1
XTAP_359 VGND VPWR sky130_fd_sc_hd__tapvpwrvgnd_1
XFILLER_13_3 VGND VGND VPWR VPWR sky130_fd_sc_hd__decap_12
XFILLER_66_245 VGND VGND VPWR VPWR sky130_fd_sc_hd__decap_6
XFILLER_94_587 VGND VGND VPWR VPWR sky130_fd_sc_hd__fill_1
XFILLER_66_289 VGND VGND VPWR VPWR sky130_fd_sc_hd__decap_12
X_1004_ _1010_/CLK _1004_/D VGND VGND VPWR VPWR _1005_/D sky130_fd_sc_hd__dfxtp_1
XFILLER_22_359 VGND VGND VPWR VPWR sky130_fd_sc_hd__decap_4
X_1906_ _1936_/CLK _1906_/D VGND VGND VPWR VPWR _1907_/D sky130_fd_sc_hd__dfxtp_1
X_1837_ _1846_/CLK _1837_/D VGND VGND VPWR VPWR _1838_/D sky130_fd_sc_hd__dfxtp_1
X_1768_ _1772_/CLK _1768_/D VGND VGND VPWR VPWR _1769_/D sky130_fd_sc_hd__dfxtp_1
XFILLER_104_626 VGND VGND VPWR VPWR sky130_fd_sc_hd__decap_4
XFILLER_89_337 VGND VGND VPWR VPWR sky130_fd_sc_hd__decap_12
X_1699_ _1710_/CLK _1699_/D VGND VGND VPWR VPWR _1700_/D sky130_fd_sc_hd__dfxtp_1
X_0719_ _0793_/CLK _0719_/D VGND VGND VPWR VPWR _0720_/D sky130_fd_sc_hd__dfxtp_1
XFILLER_106_57 VGND VGND VPWR VPWR sky130_fd_sc_hd__fill_1
XFILLER_103_169 VGND VGND VPWR VPWR sky130_fd_sc_hd__decap_12
XTAP_860 VGND VPWR sky130_fd_sc_hd__tapvpwrvgnd_1
XTAP_871 VGND VPWR sky130_fd_sc_hd__tapvpwrvgnd_1
XTAP_893 VGND VPWR sky130_fd_sc_hd__tapvpwrvgnd_1
XTAP_882 VGND VPWR sky130_fd_sc_hd__tapvpwrvgnd_1
XFILLER_85_565 VGND VGND VPWR VPWR sky130_fd_sc_hd__fill_1
XFILLER_82_27 VGND VGND VPWR VPWR sky130_fd_sc_hd__fill_1
XFILLER_72_248 VGND VGND VPWR VPWR sky130_fd_sc_hd__decap_4
XFILLER_25_175 VGND VGND VPWR VPWR sky130_fd_sc_hd__fill_1
XFILLER_13_337 VGND VGND VPWR VPWR sky130_fd_sc_hd__decap_12
Xclkbuf_leaf_114_clk clkbuf_4_1_0_clk/X VGND VGND VPWR VPWR _1747_/CLK sky130_fd_sc_hd__clkbuf_16
XFILLER_95_329 VGND VGND VPWR VPWR sky130_fd_sc_hd__decap_6
XFILLER_0_241 VGND VGND VPWR VPWR sky130_fd_sc_hd__decap_8
XFILLER_88_381 VGND VGND VPWR VPWR sky130_fd_sc_hd__decap_4
XFILLER_76_587 VGND VGND VPWR VPWR sky130_fd_sc_hd__fill_1
XFILLER_17_621 VGND VGND VPWR VPWR sky130_fd_sc_hd__fill_1
XFILLER_56_83 VGND VGND VPWR VPWR sky130_fd_sc_hd__fill_1
XFILLER_44_473 VGND VGND VPWR VPWR sky130_fd_sc_hd__decap_3
XFILLER_16_197 VGND VGND VPWR VPWR sky130_fd_sc_hd__decap_6
XFILLER_71_281 VGND VGND VPWR VPWR sky130_fd_sc_hd__decap_12
XPHY_170 VGND VGND VPWR VPWR sky130_fd_sc_hd__decap_3
XFILLER_31_167 VGND VGND VPWR VPWR sky130_fd_sc_hd__fill_1
XPHY_192 VGND VGND VPWR VPWR sky130_fd_sc_hd__decap_3
XPHY_181 VGND VGND VPWR VPWR sky130_fd_sc_hd__decap_3
XFILLER_12_381 VGND VGND VPWR VPWR sky130_fd_sc_hd__decap_4
Xclkbuf_leaf_105_clk clkbuf_4_6_0_clk/X VGND VGND VPWR VPWR _1862_/CLK sky130_fd_sc_hd__clkbuf_16
XFILLER_8_363 VGND VGND VPWR VPWR sky130_fd_sc_hd__fill_1
X_1622_ _1673_/CLK _1622_/D VGND VGND VPWR VPWR _1623_/D sky130_fd_sc_hd__dfxtp_1
XFILLER_98_101 VGND VGND VPWR VPWR sky130_fd_sc_hd__decap_12
X_1553_ _1592_/CLK _1553_/D VGND VGND VPWR VPWR _1554_/D sky130_fd_sc_hd__dfxtp_1
X_0504_ _0508_/CLK _0504_/D VGND VGND VPWR VPWR _0505_/D sky130_fd_sc_hd__dfxtp_1
X_1484_ _1965_/CLK _1484_/D VGND VGND VPWR VPWR _1485_/D sky130_fd_sc_hd__dfxtp_1
XFILLER_101_629 VGND VGND VPWR VPWR sky130_fd_sc_hd__fill_1
X_0435_ _0973_/CLK _0435_/D VGND VGND VPWR VPWR _0436_/D sky130_fd_sc_hd__dfxtp_1
XFILLER_86_329 VGND VGND VPWR VPWR sky130_fd_sc_hd__decap_4
XFILLER_67_532 VGND VGND VPWR VPWR sky130_fd_sc_hd__decap_4
X_0366_ _1112_/CLK _0366_/D VGND VGND VPWR VPWR _0367_/D sky130_fd_sc_hd__dfxtp_1
X_0297_ _0539_/CLK _0297_/D VGND VGND VPWR VPWR _0308_/D sky130_fd_sc_hd__dfxtp_1
XFILLER_39_278 VGND VGND VPWR VPWR sky130_fd_sc_hd__fill_2
XFILLER_35_473 VGND VGND VPWR VPWR sky130_fd_sc_hd__decap_4
XFILLER_50_421 VGND VGND VPWR VPWR sky130_fd_sc_hd__decap_12
XFILLER_10_307 VGND VGND VPWR VPWR sky130_fd_sc_hd__fill_1
XFILLER_2_528 VGND VGND VPWR VPWR sky130_fd_sc_hd__decap_4
XFILLER_104_489 VGND VGND VPWR VPWR sky130_fd_sc_hd__decap_3
XTAP_690 VGND VPWR sky130_fd_sc_hd__tapvpwrvgnd_1
XFILLER_85_373 VGND VGND VPWR VPWR sky130_fd_sc_hd__decap_12
XFILLER_18_429 VGND VGND VPWR VPWR sky130_fd_sc_hd__fill_1
XFILLER_58_587 VGND VGND VPWR VPWR sky130_fd_sc_hd__fill_1
XFILLER_53_281 VGND VGND VPWR VPWR sky130_fd_sc_hd__decap_8
XFILLER_49_521 VGND VGND VPWR VPWR sky130_fd_sc_hd__decap_4
X_0220_ _1594_/CLK _0220_/D VGND VGND VPWR VPWR _0231_/D sky130_fd_sc_hd__dfxtp_1
X_0151_ _1170_/CLK _0151_/D VGND VGND VPWR VPWR _0152_/D sky130_fd_sc_hd__dfxtp_1
X_0082_ _1229_/CLK _0082_/D VGND VGND VPWR VPWR _0083_/D sky130_fd_sc_hd__dfxtp_1
XFILLER_32_421 VGND VGND VPWR VPWR sky130_fd_sc_hd__decap_6
XFILLER_44_281 VGND VGND VPWR VPWR sky130_fd_sc_hd__decap_6
XFILLER_80_3 VGND VGND VPWR VPWR sky130_fd_sc_hd__decap_4
X_0984_ _1039_/CLK _0984_/D VGND VGND VPWR VPWR _0985_/D sky130_fd_sc_hd__dfxtp_1
X_1605_ _1611_/CLK _1605_/D VGND VGND VPWR VPWR _1606_/D sky130_fd_sc_hd__dfxtp_1
XFILLER_99_443 VGND VGND VPWR VPWR sky130_fd_sc_hd__decap_4
X_1536_ _1578_/CLK _1536_/D VGND VGND VPWR VPWR _1537_/D sky130_fd_sc_hd__dfxtp_1
XFILLER_99_465 VGND VGND VPWR VPWR sky130_fd_sc_hd__decap_4
X_1467_ _1726_/CLK _1467_/D VGND VGND VPWR VPWR _1468_/D sky130_fd_sc_hd__dfxtp_1
XFILLER_59_329 VGND VGND VPWR VPWR sky130_fd_sc_hd__decap_6
X_1398_ _1754_/CLK _1398_/D VGND VGND VPWR VPWR _1399_/D sky130_fd_sc_hd__dfxtp_1
X_0418_ _0539_/CLK _0418_/D VGND VGND VPWR VPWR _0429_/D sky130_fd_sc_hd__dfxtp_1
X_0349_ _1181_/CLK _0349_/D VGND VGND VPWR VPWR _0350_/D sky130_fd_sc_hd__dfxtp_1
XFILLER_82_354 VGND VGND VPWR VPWR sky130_fd_sc_hd__decap_8
XFILLER_82_321 VGND VGND VPWR VPWR sky130_fd_sc_hd__decap_4
XTAP_1119 VGND VPWR sky130_fd_sc_hd__tapvpwrvgnd_1
XTAP_1108 VGND VPWR sky130_fd_sc_hd__tapvpwrvgnd_1
XFILLER_70_505 VGND VGND VPWR VPWR sky130_fd_sc_hd__decap_6
XFILLER_35_281 VGND VGND VPWR VPWR sky130_fd_sc_hd__decap_6
XFILLER_50_284 VGND VGND VPWR VPWR sky130_fd_sc_hd__decap_4
XFILLER_104_231 VGND VGND VPWR VPWR sky130_fd_sc_hd__fill_1
XFILLER_104_253 VGND VGND VPWR VPWR sky130_fd_sc_hd__decap_12
XFILLER_78_605 VGND VGND VPWR VPWR sky130_fd_sc_hd__decap_4
XFILLER_2_358 VGND VGND VPWR VPWR sky130_fd_sc_hd__decap_6
XFILLER_92_129 VGND VGND VPWR VPWR sky130_fd_sc_hd__decap_8
XFILLER_46_513 VGND VGND VPWR VPWR sky130_fd_sc_hd__decap_12
XFILLER_37_52 VGND VGND VPWR VPWR sky130_fd_sc_hd__decap_4
XFILLER_61_505 VGND VGND VPWR VPWR sky130_fd_sc_hd__decap_12
XFILLER_14_421 VGND VGND VPWR VPWR sky130_fd_sc_hd__decap_12
XFILLER_61_549 VGND VGND VPWR VPWR sky130_fd_sc_hd__decap_8
XFILLER_78_81 VGND VGND VPWR VPWR sky130_fd_sc_hd__decap_3
X_1321_ _1788_/CLK _1321_/D VGND VGND VPWR VPWR _1322_/D sky130_fd_sc_hd__dfxtp_1
XFILLER_1_391 VGND VGND VPWR VPWR sky130_fd_sc_hd__fill_1
X_1252_ _1272_/CLK _1252_/D VGND VGND VPWR VPWR _1253_/D sky130_fd_sc_hd__dfxtp_1
X_0203_ _1178_/CLK _0203_/D VGND VGND VPWR VPWR _0204_/D sky130_fd_sc_hd__dfxtp_1
X_1183_ _1578_/CLK _1183_/D VGND VGND VPWR VPWR _1183_/Q sky130_fd_sc_hd__dfxtp_1
XFILLER_37_557 VGND VGND VPWR VPWR sky130_fd_sc_hd__decap_3
XFILLER_91_140 VGND VGND VPWR VPWR sky130_fd_sc_hd__fill_1
X_0134_ _1228_/CLK _0134_/D VGND VGND VPWR VPWR _0135_/D sky130_fd_sc_hd__dfxtp_1
XFILLER_17_281 VGND VGND VPWR VPWR sky130_fd_sc_hd__decap_8
X_0065_ _1185_/CLK _0065_/D VGND VGND VPWR VPWR _0067_/D sky130_fd_sc_hd__dfxtp_1
X_0967_ _1039_/CLK _0967_/D VGND VGND VPWR VPWR _0969_/D sky130_fd_sc_hd__dfxtp_1
X_0898_ _0898_/CLK _0898_/D VGND VGND VPWR VPWR _0899_/D sky130_fd_sc_hd__dfxtp_1
XFILLER_58_29 VGND VGND VPWR VPWR sky130_fd_sc_hd__decap_12
X_1519_ _1587_/CLK _1519_/D VGND VGND VPWR VPWR _1520_/D sky130_fd_sc_hd__dfxtp_1
XFILLER_101_256 VGND VGND VPWR VPWR sky130_fd_sc_hd__decap_4
Xclkbuf_leaf_94_clk clkbuf_4_5_0_clk/X VGND VGND VPWR VPWR _1600_/CLK sky130_fd_sc_hd__clkbuf_16
XFILLER_43_505 VGND VGND VPWR VPWR sky130_fd_sc_hd__decap_4
XFILLER_82_195 VGND VGND VPWR VPWR sky130_fd_sc_hd__fill_1
XFILLER_43_549 VGND VGND VPWR VPWR sky130_fd_sc_hd__decap_8
XFILLER_23_54 VGND VGND VPWR VPWR sky130_fd_sc_hd__fill_2
XFILLER_7_417 VGND VGND VPWR VPWR sky130_fd_sc_hd__decap_4
XFILLER_3_601 VGND VGND VPWR VPWR sky130_fd_sc_hd__decap_12
XFILLER_2_177 VGND VGND VPWR VPWR sky130_fd_sc_hd__decap_12
XFILLER_93_405 VGND VGND VPWR VPWR sky130_fd_sc_hd__decap_3
XFILLER_65_107 VGND VGND VPWR VPWR sky130_fd_sc_hd__decap_4
XFILLER_93_449 VGND VGND VPWR VPWR sky130_fd_sc_hd__decap_8
Xclkbuf_leaf_85_clk clkbuf_4_7_0_clk/X VGND VGND VPWR VPWR _1936_/CLK sky130_fd_sc_hd__clkbuf_16
XFILLER_0_69 VGND VGND VPWR VPWR sky130_fd_sc_hd__decap_12
XFILLER_34_549 VGND VGND VPWR VPWR sky130_fd_sc_hd__decap_4
XFILLER_14_251 VGND VGND VPWR VPWR sky130_fd_sc_hd__fill_1
X_1870_ _1997_/CLK _1870_/D VGND VGND VPWR VPWR _1871_/D sky130_fd_sc_hd__dfxtp_1
X_0821_ _0831_/CLK _0821_/D VGND VGND VPWR VPWR _0822_/D sky130_fd_sc_hd__dfxtp_1
XFILLER_80_82 VGND VGND VPWR VPWR sky130_fd_sc_hd__fill_2
X_0752_ _0761_/CLK _0752_/D VGND VGND VPWR VPWR _0753_/D sky130_fd_sc_hd__dfxtp_1
XFILLER_6_472 VGND VGND VPWR VPWR sky130_fd_sc_hd__decap_4
X_0683_ _0898_/CLK _0683_/D VGND VGND VPWR VPWR _0684_/D sky130_fd_sc_hd__dfxtp_1
XFILLER_43_3 VGND VGND VPWR VPWR sky130_fd_sc_hd__decap_12
X_1304_ _1320_/CLK _1304_/D VGND VGND VPWR VPWR _1305_/D sky130_fd_sc_hd__dfxtp_1
X_1235_ _1302_/CLK _1235_/D VGND VGND VPWR VPWR _1236_/D sky130_fd_sc_hd__dfxtp_1
Xclkbuf_leaf_76_clk clkbuf_4_6_0_clk/X VGND VGND VPWR VPWR _1858_/CLK sky130_fd_sc_hd__clkbuf_16
XFILLER_25_505 VGND VGND VPWR VPWR sky130_fd_sc_hd__fill_1
X_1166_ _1841_/CLK _1166_/D VGND VGND VPWR VPWR _1177_/D sky130_fd_sc_hd__dfxtp_1
X_0117_ _0743_/CLK _0117_/D VGND VGND VPWR VPWR _0118_/D sky130_fd_sc_hd__dfxtp_1
X_1097_ _1104_/CLK _1097_/D VGND VGND VPWR VPWR _1098_/D sky130_fd_sc_hd__dfxtp_1
XFILLER_100_15 VGND VGND VPWR VPWR sky130_fd_sc_hd__decap_12
X_0048_ _0169_/CLK _0048_/D VGND VGND VPWR VPWR _0049_/D sky130_fd_sc_hd__dfxtp_1
XFILLER_69_28 VGND VGND VPWR VPWR sky130_fd_sc_hd__decap_4
XFILLER_85_27 VGND VGND VPWR VPWR sky130_fd_sc_hd__decap_4
XFILLER_28_321 VGND VGND VPWR VPWR sky130_fd_sc_hd__decap_3
Xclkbuf_leaf_67_clk clkbuf_4_13_0_clk/X VGND VGND VPWR VPWR _0280_/CLK sky130_fd_sc_hd__clkbuf_16
XFILLER_90_419 VGND VGND VPWR VPWR sky130_fd_sc_hd__fill_1
XFILLER_18_65 VGND VGND VPWR VPWR sky130_fd_sc_hd__decap_12
XFILLER_28_365 VGND VGND VPWR VPWR sky130_fd_sc_hd__decap_12
XFILLER_43_313 VGND VGND VPWR VPWR sky130_fd_sc_hd__fill_1
XFILLER_34_53 VGND VGND VPWR VPWR sky130_fd_sc_hd__decap_4
XFILLER_11_243 VGND VGND VPWR VPWR sky130_fd_sc_hd__decap_4
XFILLER_7_225 VGND VGND VPWR VPWR sky130_fd_sc_hd__decap_3
XFILLER_50_41 VGND VGND VPWR VPWR sky130_fd_sc_hd__decap_3
XFILLER_7_269 VGND VGND VPWR VPWR sky130_fd_sc_hd__decap_8
XFILLER_50_85 VGND VGND VPWR VPWR sky130_fd_sc_hd__decap_12
XTAP_508 VGND VPWR sky130_fd_sc_hd__tapvpwrvgnd_1
XTAP_519 VGND VPWR sky130_fd_sc_hd__tapvpwrvgnd_1
XFILLER_78_221 VGND VGND VPWR VPWR sky130_fd_sc_hd__decap_4
XFILLER_78_265 VGND VGND VPWR VPWR sky130_fd_sc_hd__decap_3
Xclkbuf_leaf_58_clk clkbuf_4_15_0_clk/X VGND VGND VPWR VPWR _0573_/CLK sky130_fd_sc_hd__clkbuf_16
XFILLER_19_332 VGND VGND VPWR VPWR sky130_fd_sc_hd__decap_4
Xclkbuf_4_11_0_clk clkbuf_0_clk/X VGND VGND VPWR VPWR clkbuf_4_11_0_clk/X sky130_fd_sc_hd__clkbuf_1
X_1020_ _1039_/CLK _1020_/D VGND VGND VPWR VPWR _1021_/D sky130_fd_sc_hd__dfxtp_1
XFILLER_34_302 VGND VGND VPWR VPWR sky130_fd_sc_hd__decap_6
XFILLER_34_313 VGND VGND VPWR VPWR sky130_fd_sc_hd__fill_1
XFILLER_74_493 VGND VGND VPWR VPWR sky130_fd_sc_hd__decap_12
XFILLER_46_195 VGND VGND VPWR VPWR sky130_fd_sc_hd__fill_1
XTAP_1291 VGND VPWR sky130_fd_sc_hd__tapvpwrvgnd_1
XTAP_1280 VGND VPWR sky130_fd_sc_hd__tapvpwrvgnd_1
XFILLER_30_530 VGND VGND VPWR VPWR sky130_fd_sc_hd__fill_2
X_1922_ _1936_/CLK _1922_/D VGND VGND VPWR VPWR _1923_/D sky130_fd_sc_hd__dfxtp_1
X_1853_ _1997_/CLK _1853_/D VGND VGND VPWR VPWR _1854_/D sky130_fd_sc_hd__dfxtp_1
X_0804_ _0906_/CLK _0804_/D VGND VGND VPWR VPWR _0805_/D sky130_fd_sc_hd__dfxtp_1
X_1784_ _1788_/CLK _1784_/D VGND VGND VPWR VPWR _1785_/D sky130_fd_sc_hd__dfxtp_1
X_0735_ _0743_/CLK _0735_/D VGND VGND VPWR VPWR _0736_/D sky130_fd_sc_hd__dfxtp_1
XFILLER_103_307 VGND VGND VPWR VPWR sky130_fd_sc_hd__decap_8
X_0666_ _0908_/CLK _0666_/D VGND VGND VPWR VPWR _0667_/D sky130_fd_sc_hd__dfxtp_1
X_0597_ _0610_/CLK _0597_/D VGND VGND VPWR VPWR _0598_/D sky130_fd_sc_hd__dfxtp_1
Xclkbuf_leaf_49_clk clkbuf_4_14_0_clk/X VGND VGND VPWR VPWR _0966_/CLK sky130_fd_sc_hd__clkbuf_16
XFILLER_29_129 VGND VGND VPWR VPWR sky130_fd_sc_hd__decap_4
X_1218_ _1228_/CLK _1218_/D VGND VGND VPWR VPWR _1219_/D sky130_fd_sc_hd__dfxtp_1
XFILLER_72_419 VGND VGND VPWR VPWR sky130_fd_sc_hd__fill_1
X_1149_ _1162_/CLK _1149_/D VGND VGND VPWR VPWR _1150_/D sky130_fd_sc_hd__dfxtp_1
XFILLER_21_585 VGND VGND VPWR VPWR sky130_fd_sc_hd__decap_8
XFILLER_96_15 VGND VGND VPWR VPWR sky130_fd_sc_hd__decap_12
XFILLER_96_59 VGND VGND VPWR VPWR sky130_fd_sc_hd__decap_4
XFILLER_0_445 VGND VGND VPWR VPWR sky130_fd_sc_hd__decap_3
XFILLER_102_340 VGND VGND VPWR VPWR sky130_fd_sc_hd__decap_4
XFILLER_0_489 VGND VGND VPWR VPWR sky130_fd_sc_hd__decap_12
XFILLER_75_213 VGND VGND VPWR VPWR sky130_fd_sc_hd__decap_8
XFILLER_44_622 VGND VGND VPWR VPWR sky130_fd_sc_hd__decap_8
XFILLER_56_493 VGND VGND VPWR VPWR sky130_fd_sc_hd__decap_4
XFILLER_90_249 VGND VGND VPWR VPWR sky130_fd_sc_hd__decap_3
XFILLER_28_195 VGND VGND VPWR VPWR sky130_fd_sc_hd__fill_1
XFILLER_12_541 VGND VGND VPWR VPWR sky130_fd_sc_hd__decap_3
XFILLER_8_501 VGND VGND VPWR VPWR sky130_fd_sc_hd__decap_4
XFILLER_61_51 VGND VGND VPWR VPWR sky130_fd_sc_hd__decap_4
XFILLER_61_73 VGND VGND VPWR VPWR sky130_fd_sc_hd__decap_12
XFILLER_8_578 VGND VGND VPWR VPWR sky130_fd_sc_hd__decap_8
X_0520_ _0529_/CLK _0520_/D VGND VGND VPWR VPWR _0521_/D sky130_fd_sc_hd__dfxtp_1
XFILLER_6_79 VGND VGND VPWR VPWR sky130_fd_sc_hd__decap_4
XTAP_305 VGND VPWR sky130_fd_sc_hd__tapvpwrvgnd_1
XTAP_349 VGND VPWR sky130_fd_sc_hd__tapvpwrvgnd_1
XTAP_338 VGND VPWR sky130_fd_sc_hd__tapvpwrvgnd_1
XTAP_327 VGND VPWR sky130_fd_sc_hd__tapvpwrvgnd_1
XTAP_316 VGND VPWR sky130_fd_sc_hd__tapvpwrvgnd_1
X_0451_ _1985_/CLK _0451_/D VGND VGND VPWR VPWR _0462_/D sky130_fd_sc_hd__dfxtp_1
X_0382_ _1104_/CLK _0382_/D VGND VGND VPWR VPWR _0383_/D sky130_fd_sc_hd__dfxtp_1
XFILLER_39_405 VGND VGND VPWR VPWR sky130_fd_sc_hd__fill_2
XFILLER_94_533 VGND VGND VPWR VPWR sky130_fd_sc_hd__decap_8
XFILLER_39_427 VGND VGND VPWR VPWR sky130_fd_sc_hd__fill_1
XFILLER_39_449 VGND VGND VPWR VPWR sky130_fd_sc_hd__decap_12
XFILLER_66_213 VGND VGND VPWR VPWR sky130_fd_sc_hd__decap_4
X_1003_ _1010_/CLK _1003_/D VGND VGND VPWR VPWR _1004_/D sky130_fd_sc_hd__dfxtp_1
XFILLER_50_625 VGND VGND VPWR VPWR sky130_fd_sc_hd__decap_4
X_1905_ _1907_/CLK _1905_/D VGND VGND VPWR VPWR _1906_/D sky130_fd_sc_hd__dfxtp_1
X_1836_ _1846_/CLK _1836_/D VGND VGND VPWR VPWR _1837_/D sky130_fd_sc_hd__dfxtp_1
X_1767_ _1833_/CLK _1767_/D VGND VGND VPWR VPWR _1778_/D sky130_fd_sc_hd__dfxtp_1
X_0718_ _0793_/CLK _0718_/D VGND VGND VPWR VPWR _0719_/D sky130_fd_sc_hd__dfxtp_1
X_1698_ _1710_/CLK _1698_/D VGND VGND VPWR VPWR _1699_/D sky130_fd_sc_hd__dfxtp_1
X_0649_ _1649_/CLK _0649_/D VGND VGND VPWR VPWR _0660_/D sky130_fd_sc_hd__dfxtp_1
XFILLER_97_371 VGND VGND VPWR VPWR sky130_fd_sc_hd__fill_1
XTAP_850 VGND VPWR sky130_fd_sc_hd__tapvpwrvgnd_1
XTAP_861 VGND VPWR sky130_fd_sc_hd__tapvpwrvgnd_1
XFILLER_97_393 VGND VGND VPWR VPWR sky130_fd_sc_hd__decap_12
XFILLER_57_213 VGND VGND VPWR VPWR sky130_fd_sc_hd__decap_8
XTAP_872 VGND VPWR sky130_fd_sc_hd__tapvpwrvgnd_1
XTAP_894 VGND VPWR sky130_fd_sc_hd__tapvpwrvgnd_1
XTAP_883 VGND VPWR sky130_fd_sc_hd__tapvpwrvgnd_1
XFILLER_66_29 VGND VGND VPWR VPWR sky130_fd_sc_hd__decap_12
XFILLER_57_279 VGND VGND VPWR VPWR sky130_fd_sc_hd__fill_1
XFILLER_72_205 VGND VGND VPWR VPWR sky130_fd_sc_hd__fill_2
XFILLER_25_143 VGND VGND VPWR VPWR sky130_fd_sc_hd__fill_1
XFILLER_15_55 VGND VGND VPWR VPWR sky130_fd_sc_hd__fill_1
XFILLER_13_349 VGND VGND VPWR VPWR sky130_fd_sc_hd__decap_6